@<TRIPOS>MOLECULE
guest-s15_vm2.mol2 : vm2 ligand conformer 1
          29          28           1
SMALL
USER_CHARGES
 
@<TRIPOS>ATOM
       1    C1      19.530644   19.931337   18.743945 C.3        1 MOL1        -0.2426
       2    H1      18.590593   20.492447   18.825866 H          1 MOL1         0.0959
       3    H2      20.358530   20.652076   18.724070 H          1 MOL1         0.0959
       4    H3      19.523342   19.399796   17.783495 H          1 MOL1         0.0959
       5    C2      19.687730   18.938471   19.915012 C.3        1 MOL1        -0.1410
       6    H4      20.619038   18.368951   19.787685 H          1 MOL1         0.0948
       7    H5      18.864720   18.210552   19.888744 H          1 MOL1         0.0948
       8    C3      19.701054   19.661531   21.279914 C.3        1 MOL1        -0.1435
       9    H6      20.523787   20.389612   21.300575 H          1 MOL1         0.0948
      10    H7      18.769309   20.231144   21.401540 H          1 MOL1         0.0948
      11    C4      19.858363   18.670426   22.455082 C.3        1 MOL1        -0.1435
      12    H8      20.789752   18.100622   22.331374 H          1 MOL1         0.0948
      13    H9      19.035145   17.942852   22.433869 H          1 MOL1         0.0948
      14    C5      19.872391   19.394234   23.820396 C.3        1 MOL1        -0.1435
      15    H10     20.698090   20.119116   23.842060 H          1 MOL1         0.0948
      16    H11     18.941817   19.966133   23.933668 H          1 MOL1         0.0948
      17    C6      20.028855   18.399049   24.995771 C.3        1 MOL1        -0.1500
      18    H12     20.935392   17.800244   24.835371 H          1 MOL1         0.0948
      19    H13     19.185519   17.695664   25.001843 H          1 MOL1         0.0948
      20    C7      20.131391   19.098930   26.368220 C.3        1 MOL1         0.1162
      21    H14     20.961915   19.810519   26.329201 H          1 MOL1         0.0910
      22    C8      20.428029   18.070847   27.471559 C.3        1 MOL1        -0.2491
      23    H15     20.538332   18.566007   28.444216 H          1 MOL1         0.0959
      24    H16     19.620749   17.332234   27.553415 H          1 MOL1         0.0959
      25    H17     21.362217   17.534358   27.263634 H          1 MOL1         0.0959
      26    N1      18.897543   19.891176   26.704102 N.4        1 MOL1        -0.5987
      27    H18     18.990990   20.363892   27.607696 H          1 MOL1         0.3605
      28    H19     18.071015   19.289800   26.756528 H          1 MOL1         0.3605
      29    H20     18.712065   20.610424   25.999854 H          1 MOL1         0.3605
@<TRIPOS>BOND
    1     1     2    1
    2     1     3    1
    3     1     4    1
    4     1     5    1
    5     5     6    1
    6     5     7    1
    7     5     8    1
    8     8     9    1
    9     8    10    1
   10     8    11    1
   11    11    12    1
   12    11    13    1
   13    11    14    1
   14    14    15    1
   15    14    16    1
   16    14    17    1
   17    17    18    1
   18    17    19    1
   19    17    20    1
   20    20    21    1
   21    20    22    1
   22    22    23    1
   23    22    24    1
   24    22    25    1
   25    20    26    1
   26    26    27    1
   27    26    28    1
   28    26    29    1
@<TRIPOS>SUBSTRUCTURE
       1 MOL1            1 RESIDUE      1      MOL     
@<SCITEGIC>MOL_PROPERTY
VM2 Rank
SciTegic.value.IntegerValue
1

@<SCITEGIC>MOL_PROPERTY
Conf_Id
SciTegic.value.IntegerValue
1424

@<SCITEGIC>MOL_PROPERTY
Probability
SciTegic.value.DoubleValue
10.38

@<SCITEGIC>MOL_PROPERTY
Sum Probability
SciTegic.value.DoubleValue
10.38

@<SCITEGIC>MOL_PROPERTY
Delta G
SciTegic.value.DoubleValue
0.000

@<SCITEGIC>MOL_PROPERTY
G
SciTegic.value.DoubleValue
33.702

@<SCITEGIC>MOL_PROPERTY
E
SciTegic.value.DoubleValue
-3.682

@<SCITEGIC>MOL_PROPERTY
-TS
SciTegic.value.DoubleValue
37.384

@<SCITEGIC>MOL_PROPERTY
U+W
SciTegic.value.DoubleValue
-27.827

@<SCITEGIC>MOL_PROPERTY
U
SciTegic.value.DoubleValue
23.963

@<SCITEGIC>MOL_PROPERTY
W
SciTegic.value.DoubleValue
-51.788

@<SCITEGIC>MOL_PROPERTY
W(PB)
SciTegic.value.DoubleValue
-54.341

@<SCITEGIC>MOL_PROPERTY
W(SA)
SciTegic.value.DoubleValue
2.554

@<SCITEGIC>MOL_PROPERTY
Valence
SciTegic.value.DoubleValue
3.166

@<SCITEGIC>MOL_PROPERTY
Coulomb
SciTegic.value.DoubleValue
19.734

@<SCITEGIC>MOL_PROPERTY
VdW
SciTegic.value.DoubleValue
1.062

@<SCITEGIC>MOL_PROPERTY
VdW6
SciTegic.value.DoubleValue
-7.938

@<SCITEGIC>MOL_PROPERTY
VdW12
SciTegic.value.DoubleValue
9.001

@<SCITEGIC>MOL_PROPERTY
Bond
SciTegic.value.DoubleValue
0.188

@<SCITEGIC>MOL_PROPERTY
Angle
SciTegic.value.DoubleValue
0.880

@<SCITEGIC>MOL_PROPERTY
Pdih
SciTegic.value.DoubleValue
2.098

@<SCITEGIC>MOL_PROPERTY
Idih
SciTegic.value.DoubleValue
0.000

@<SCITEGIC>MOL_PROPERTY
Tether
SciTegic.value.DoubleValue
0.000

@<TRIPOS>MOLECULE
guest-s15_vm2.mol2 : vm2 ligand conformer 2
          29          28           1
SMALL
USER_CHARGES
 
@<TRIPOS>ATOM
       1    C1      19.030797   19.352356   18.849809 C.3        1 MOL1        -0.2426
       2    H1      18.500249   18.391504   18.826685 H          1 MOL1         0.0959
       3    H2      18.285911   20.151887   18.955371 H          1 MOL1         0.0959
       4    H3      19.531886   19.484107   17.882027 H          1 MOL1         0.0959
       5    C2      20.054957   19.392711   20.003637 C.3        1 MOL1        -0.1410
       6    H4      20.592768   20.350895   19.980434 H          1 MOL1         0.0948
       7    H5      20.805409   18.604069   19.852765 H          1 MOL1         0.0948
       8    C3      19.375066   19.209474   21.378442 C.3        1 MOL1        -0.1435
       9    H6      18.624390   19.998631   21.523733 H          1 MOL1         0.0948
      10    H7      18.836905   18.251625   21.395953 H          1 MOL1         0.0948
      11    C4      20.397659   19.249176   22.536398 C.3        1 MOL1        -0.1435
      12    H8      20.935526   20.207187   22.517367 H          1 MOL1         0.0948
      13    H9      21.148120   18.460017   22.389788 H          1 MOL1         0.0948
      14    C5      19.717284   19.065606   23.911759 C.3        1 MOL1        -0.1435
      15    H10     18.967939   19.855940   24.051156 H          1 MOL1         0.0948
      16    H11     19.179034   18.108703   23.919102 H          1 MOL1         0.0948
      17    C6      20.748992   19.103101   25.069146 C.3        1 MOL1        -0.1500
      18    H12     21.313072   20.043709   25.018833 H          1 MOL1         0.0948
      19    H13     21.485372   18.301403   24.924911 H          1 MOL1         0.0948
      20    C7      20.143372   18.972234   26.486630 C.3        1 MOL1         0.1162
      21    H14     20.969354   19.044668   27.200970 H          1 MOL1         0.0910
      22    C8      19.461210   17.609897   26.701199 C.3        1 MOL1        -0.2491
      23    H15     19.163312   17.491446   27.750214 H          1 MOL1         0.0959
      24    H16     18.561073   17.505051   26.083973 H          1 MOL1         0.0959
      25    H17     20.145209   16.788243   26.455003 H          1 MOL1         0.0959
      26    N1      19.206663   20.101446   26.816980 N.4        1 MOL1        -0.5987
      27    H18     19.666527   21.011270   26.719675 H          1 MOL1         0.3605
      28    H19     18.863277   20.033239   27.779323 H          1 MOL1         0.3605
      29    H20     18.391343   20.100065   26.199087 H          1 MOL1         0.3605
@<TRIPOS>BOND
    1     1     2    1
    2     1     3    1
    3     1     4    1
    4     1     5    1
    5     5     6    1
    6     5     7    1
    7     5     8    1
    8     8     9    1
    9     8    10    1
   10     8    11    1
   11    11    12    1
   12    11    13    1
   13    11    14    1
   14    14    15    1
   15    14    16    1
   16    14    17    1
   17    17    18    1
   18    17    19    1
   19    17    20    1
   20    20    21    1
   21    20    22    1
   22    22    23    1
   23    22    24    1
   24    22    25    1
   25    20    26    1
   26    26    27    1
   27    26    28    1
   28    26    29    1
@<TRIPOS>SUBSTRUCTURE
       1 MOL1            1 RESIDUE      1      MOL     
@<SCITEGIC>MOL_PROPERTY
VM2 Rank
SciTegic.value.IntegerValue
2

@<SCITEGIC>MOL_PROPERTY
Conf_Id
SciTegic.value.IntegerValue
1448

@<SCITEGIC>MOL_PROPERTY
Probability
SciTegic.value.DoubleValue
5.09

@<SCITEGIC>MOL_PROPERTY
Sum Probability
SciTegic.value.DoubleValue
15.47

@<SCITEGIC>MOL_PROPERTY
Delta G
SciTegic.value.DoubleValue
0.425

@<SCITEGIC>MOL_PROPERTY
G
SciTegic.value.DoubleValue
34.127

@<SCITEGIC>MOL_PROPERTY
E
SciTegic.value.DoubleValue
-3.403

@<SCITEGIC>MOL_PROPERTY
-TS
SciTegic.value.DoubleValue
37.530

@<SCITEGIC>MOL_PROPERTY
U+W
SciTegic.value.DoubleValue
-27.548

@<SCITEGIC>MOL_PROPERTY
U
SciTegic.value.DoubleValue
24.513

@<SCITEGIC>MOL_PROPERTY
W
SciTegic.value.DoubleValue
-52.061

@<SCITEGIC>MOL_PROPERTY
W(PB)
SciTegic.value.DoubleValue
-54.558

@<SCITEGIC>MOL_PROPERTY
W(SA)
SciTegic.value.DoubleValue
2.497

@<SCITEGIC>MOL_PROPERTY
Valence
SciTegic.value.DoubleValue
3.678

@<SCITEGIC>MOL_PROPERTY
Coulomb
SciTegic.value.DoubleValue
19.662

@<SCITEGIC>MOL_PROPERTY
VdW
SciTegic.value.DoubleValue
1.174

@<SCITEGIC>MOL_PROPERTY
VdW6
SciTegic.value.DoubleValue
-8.569

@<SCITEGIC>MOL_PROPERTY
VdW12
SciTegic.value.DoubleValue
9.743

@<SCITEGIC>MOL_PROPERTY
Bond
SciTegic.value.DoubleValue
0.224

@<SCITEGIC>MOL_PROPERTY
Angle
SciTegic.value.DoubleValue
1.211

@<SCITEGIC>MOL_PROPERTY
Pdih
SciTegic.value.DoubleValue
2.243

@<SCITEGIC>MOL_PROPERTY
Idih
SciTegic.value.DoubleValue
0.000

@<SCITEGIC>MOL_PROPERTY
Tether
SciTegic.value.DoubleValue
0.000

@<TRIPOS>MOLECULE
guest-s15_vm2.mol2 : vm2 ligand conformer 3
          29          28           1
SMALL
USER_CHARGES
 
@<TRIPOS>ATOM
       1    C1      20.203069   19.467344   18.690426 C.3        1 MOL1        -0.2426
       2    H1      20.598506   20.491399   18.704452 H          1 MOL1         0.0959
       3    H2      21.052450   18.773348   18.643788 H          1 MOL1         0.0959
       4    H3      19.616855   19.344935   17.770416 H          1 MOL1         0.0959
       5    C2      19.330224   19.192842   19.933264 C.3        1 MOL1        -0.1410
       6    H4      18.922102   18.174085   19.874359 H          1 MOL1         0.0948
       7    H5      18.471602   19.878893   19.934502 H          1 MOL1         0.0948
       8    C3      20.132034   19.358499   21.243070 C.3        1 MOL1        -0.1435
       9    H6      20.990434   18.672564   21.236049 H          1 MOL1         0.0948
      10    H7      20.539779   20.377475   21.296441 H          1 MOL1         0.0948
      11    C4      19.261264   19.084335   22.489945 C.3        1 MOL1        -0.1435
      12    H8      18.854128   18.065101   22.436049 H          1 MOL1         0.0948
      13    H9      18.402656   19.770067   22.494734 H          1 MOL1         0.0948
      14    C5      20.063809   19.250704   23.800214 C.3        1 MOL1        -0.1435
      15    H10     20.923328   18.567921   23.781338 H          1 MOL1         0.0948
      16    H11     20.466569   20.271563   23.856289 H          1 MOL1         0.0948
      17    C6      19.190220   18.970853   25.047754 C.3        1 MOL1        -0.1500
      18    H12     18.839157   17.930510   25.028356 H          1 MOL1         0.0948
      19    H13     18.293750   19.602771   24.995315 H          1 MOL1         0.0948
      20    C7      19.908594   19.252365   26.387207 C.3        1 MOL1         0.1162
      21    H14     20.285082   20.279702   26.365537 H          1 MOL1         0.0910
      22    C8      21.097229   18.302393   26.619541 C.3        1 MOL1        -0.2491
      23    H15     20.778911   17.252974   26.586203 H          1 MOL1         0.0959
      24    H16     21.878698   18.449107   25.865121 H          1 MOL1         0.0959
      25    H17     21.554225   18.488117   27.599347 H          1 MOL1         0.0959
      26    N1      18.949557   19.176665   27.542578 N.4        1 MOL1        -0.5987
      27    H18     19.412344   19.401278   28.428081 H          1 MOL1         0.3605
      28    H19     18.549865   18.238966   27.636096 H          1 MOL1         0.3605
      29    H20     18.171533   19.833218   27.430627 H          1 MOL1         0.3605
@<TRIPOS>BOND
    1     1     2    1
    2     1     3    1
    3     1     4    1
    4     1     5    1
    5     5     6    1
    6     5     7    1
    7     5     8    1
    8     8     9    1
    9     8    10    1
   10     8    11    1
   11    11    12    1
   12    11    13    1
   13    11    14    1
   14    14    15    1
   15    14    16    1
   16    14    17    1
   17    17    18    1
   18    17    19    1
   19    17    20    1
   20    20    21    1
   21    20    22    1
   22    22    23    1
   23    22    24    1
   24    22    25    1
   25    20    26    1
   26    26    27    1
   27    26    28    1
   28    26    29    1
@<TRIPOS>SUBSTRUCTURE
       1 MOL1            1 RESIDUE      1      MOL     
@<SCITEGIC>MOL_PROPERTY
VM2 Rank
SciTegic.value.IntegerValue
3

@<SCITEGIC>MOL_PROPERTY
Conf_Id
SciTegic.value.IntegerValue
58

@<SCITEGIC>MOL_PROPERTY
Probability
SciTegic.value.DoubleValue
5.07

@<SCITEGIC>MOL_PROPERTY
Sum Probability
SciTegic.value.DoubleValue
20.55

@<SCITEGIC>MOL_PROPERTY
Delta G
SciTegic.value.DoubleValue
0.427

@<SCITEGIC>MOL_PROPERTY
G
SciTegic.value.DoubleValue
34.129

@<SCITEGIC>MOL_PROPERTY
E
SciTegic.value.DoubleValue
-3.270

@<SCITEGIC>MOL_PROPERTY
-TS
SciTegic.value.DoubleValue
37.399

@<SCITEGIC>MOL_PROPERTY
U+W
SciTegic.value.DoubleValue
-27.414

@<SCITEGIC>MOL_PROPERTY
U
SciTegic.value.DoubleValue
24.279

@<SCITEGIC>MOL_PROPERTY
W
SciTegic.value.DoubleValue
-51.694

@<SCITEGIC>MOL_PROPERTY
W(PB)
SciTegic.value.DoubleValue
-54.271

@<SCITEGIC>MOL_PROPERTY
W(SA)
SciTegic.value.DoubleValue
2.577

@<SCITEGIC>MOL_PROPERTY
Valence
SciTegic.value.DoubleValue
3.709

@<SCITEGIC>MOL_PROPERTY
Coulomb
SciTegic.value.DoubleValue
19.380

@<SCITEGIC>MOL_PROPERTY
VdW
SciTegic.value.DoubleValue
1.191

@<SCITEGIC>MOL_PROPERTY
VdW6
SciTegic.value.DoubleValue
-8.093

@<SCITEGIC>MOL_PROPERTY
VdW12
SciTegic.value.DoubleValue
9.284

@<SCITEGIC>MOL_PROPERTY
Bond
SciTegic.value.DoubleValue
0.200

@<SCITEGIC>MOL_PROPERTY
Angle
SciTegic.value.DoubleValue
1.161

@<SCITEGIC>MOL_PROPERTY
Pdih
SciTegic.value.DoubleValue
2.348

@<SCITEGIC>MOL_PROPERTY
Idih
SciTegic.value.DoubleValue
0.000

@<SCITEGIC>MOL_PROPERTY
Tether
SciTegic.value.DoubleValue
0.000

@<TRIPOS>MOLECULE
guest-s15_vm2.mol2 : vm2 ligand conformer 4
          29          28           1
SMALL
USER_CHARGES
 
@<TRIPOS>ATOM
       1    C1      18.828702   18.794358   19.403746 C.3        1 MOL1        -0.2426
       2    H1      18.682856   17.874334   19.983181 H          1 MOL1         0.0959
       3    H2      17.943894   19.430051   19.538060 H          1 MOL1         0.0959
       4    H3      18.881587   18.511952   18.344319 H          1 MOL1         0.0959
       5    C2      20.115677   19.536069   19.830454 C.3        1 MOL1        -0.1410
       6    H4      20.282541   20.378531   19.144761 H          1 MOL1         0.0948
       7    H5      20.981851   18.869588   19.715237 H          1 MOL1         0.0948
       8    C3      20.061502   20.078284   21.279066 C.3        1 MOL1        -0.1435
       9    H6      20.961652   20.682134   21.459054 H          1 MOL1         0.0948
      10    H7      19.205987   20.759726   21.383725 H          1 MOL1         0.0948
      11    C4      19.977001   18.965452   22.351036 C.3        1 MOL1        -0.1435
      12    H8      20.804679   18.256886   22.209371 H          1 MOL1         0.0948
      13    H9      19.045508   18.397574   22.227502 H          1 MOL1         0.0948
      14    C5      20.030745   19.543780   23.783166 C.3        1 MOL1        -0.1435
      15    H10     20.965700   20.105601   23.916848 H          1 MOL1         0.0948
      16    H11     19.206937   20.258154   23.913071 H          1 MOL1         0.0948
      17    C6      19.940773   18.430603   24.855153 C.3        1 MOL1        -0.1500
      18    H12     20.738817   17.698232   24.673883 H          1 MOL1         0.0948
      19    H13     18.990191   17.890612   24.751236 H          1 MOL1         0.0948
      20    C7      20.077500   18.969033   26.295743 C.3        1 MOL1         0.1162
      21    H14     21.019091   19.522155   26.367271 H          1 MOL1         0.0910
      22    C8      20.123695   17.805561   27.298984 C.3        1 MOL1        -0.2491
      23    H15     20.257565   18.179622   28.321512 H          1 MOL1         0.0959
      24    H16     19.197604   17.217884   27.268307 H          1 MOL1         0.0959
      25    H17     20.962338   17.133468   27.078235 H          1 MOL1         0.0959
      26    N1      18.980404   19.932860   26.656652 N.4        1 MOL1        -0.5987
      27    H18     18.965518   20.736391   26.022771 H          1 MOL1         0.3605
      28    H19     19.098080   20.294634   27.607409 H          1 MOL1         0.3605
      29    H20     18.060944   19.485679   26.610151 H          1 MOL1         0.3605
@<TRIPOS>BOND
    1     1     2    1
    2     1     3    1
    3     1     4    1
    4     1     5    1
    5     5     6    1
    6     5     7    1
    7     5     8    1
    8     8     9    1
    9     8    10    1
   10     8    11    1
   11    11    12    1
   12    11    13    1
   13    11    14    1
   14    14    15    1
   15    14    16    1
   16    14    17    1
   17    17    18    1
   18    17    19    1
   19    17    20    1
   20    20    21    1
   21    20    22    1
   22    22    23    1
   23    22    24    1
   24    22    25    1
   25    20    26    1
   26    26    27    1
   27    26    28    1
   28    26    29    1
@<TRIPOS>SUBSTRUCTURE
       1 MOL1            1 RESIDUE      1      MOL     
@<SCITEGIC>MOL_PROPERTY
VM2 Rank
SciTegic.value.IntegerValue
4

@<SCITEGIC>MOL_PROPERTY
Conf_Id
SciTegic.value.IntegerValue
1236

@<SCITEGIC>MOL_PROPERTY
Probability
SciTegic.value.DoubleValue
3.90

@<SCITEGIC>MOL_PROPERTY
Sum Probability
SciTegic.value.DoubleValue
24.45

@<SCITEGIC>MOL_PROPERTY
Delta G
SciTegic.value.DoubleValue
0.583

@<SCITEGIC>MOL_PROPERTY
G
SciTegic.value.DoubleValue
34.285

@<SCITEGIC>MOL_PROPERTY
E
SciTegic.value.DoubleValue
-3.210

@<SCITEGIC>MOL_PROPERTY
-TS
SciTegic.value.DoubleValue
37.496

@<SCITEGIC>MOL_PROPERTY
U+W
SciTegic.value.DoubleValue
-27.355

@<SCITEGIC>MOL_PROPERTY
U
SciTegic.value.DoubleValue
24.589

@<SCITEGIC>MOL_PROPERTY
W
SciTegic.value.DoubleValue
-51.944

@<SCITEGIC>MOL_PROPERTY
W(PB)
SciTegic.value.DoubleValue
-54.479

@<SCITEGIC>MOL_PROPERTY
W(SA)
SciTegic.value.DoubleValue
2.535

@<SCITEGIC>MOL_PROPERTY
Valence
SciTegic.value.DoubleValue
3.670

@<SCITEGIC>MOL_PROPERTY
Coulomb
SciTegic.value.DoubleValue
19.723

@<SCITEGIC>MOL_PROPERTY
VdW
SciTegic.value.DoubleValue
1.196

@<SCITEGIC>MOL_PROPERTY
VdW6
SciTegic.value.DoubleValue
-8.561

@<SCITEGIC>MOL_PROPERTY
VdW12
SciTegic.value.DoubleValue
9.756

@<SCITEGIC>MOL_PROPERTY
Bond
SciTegic.value.DoubleValue
0.223

@<SCITEGIC>MOL_PROPERTY
Angle
SciTegic.value.DoubleValue
1.119

@<SCITEGIC>MOL_PROPERTY
Pdih
SciTegic.value.DoubleValue
2.329

@<SCITEGIC>MOL_PROPERTY
Idih
SciTegic.value.DoubleValue
0.000

@<SCITEGIC>MOL_PROPERTY
Tether
SciTegic.value.DoubleValue
0.000

@<TRIPOS>MOLECULE
guest-s15_vm2.mol2 : vm2 ligand conformer 5
          29          28           1
SMALL
USER_CHARGES
 
@<TRIPOS>ATOM
       1    C1      20.485763   18.897178   19.301329 C.3        1 MOL1        -0.2426
       2    H1      20.354266   18.590382   18.255615 H          1 MOL1         0.0959
       3    H2      21.278485   19.655933   19.331523 H          1 MOL1         0.0959
       4    H3      20.828454   18.018666   19.861894 H          1 MOL1         0.0959
       5    C2      19.161768   19.453868   19.872005 C.3        1 MOL1        -0.1410
       6    H4      18.394096   18.667588   19.858982 H          1 MOL1         0.0948
       7    H5      18.797446   20.250367   19.208212 H          1 MOL1         0.0948
       8    C3      19.301082   20.025683   21.303454 C.3        1 MOL1        -0.1435
       9    H6      20.055020   20.824932   21.307324 H          1 MOL1         0.0948
      10    H7      18.349213   20.497158   21.584402 H          1 MOL1         0.0948
      11    C4      19.667514   18.957212   22.361182 C.3        1 MOL1        -0.1435
      12    H8      20.650721   18.526234   22.131118 H          1 MOL1         0.0948
      13    H9      18.940081   18.134848   22.318990 H          1 MOL1         0.0948
      14    C5      19.694981   19.549228   23.788473 C.3        1 MOL1        -0.1435
      15    H10     20.422664   20.371726   23.829319 H          1 MOL1         0.0948
      16    H11     18.711614   19.980486   24.018291 H          1 MOL1         0.0948
      17    C6      20.064337   18.480606   24.845866 C.3        1 MOL1        -0.1500
      18    H12     21.023939   18.024020   24.568753 H          1 MOL1         0.0948
      19    H13     19.318847   17.674301   24.835265 H          1 MOL1         0.0948
      20    C7      20.182710   19.059993   26.272129 C.3        1 MOL1         0.1162
      21    H14     20.911949   19.875738   26.251557 H          1 MOL1         0.0910
      22    C8      20.689371   17.984016   27.245717 C.3        1 MOL1        -0.2491
      23    H15     19.989798   17.140759   27.304591 H          1 MOL1         0.0959
      24    H16     21.664888   17.596984   26.925823 H          1 MOL1         0.0959
      25    H17     20.810568   18.398768   28.254033 H          1 MOL1         0.0959
      26    N1      18.888475   19.648216   26.763845 N.4        1 MOL1        -0.5987
      27    H18     18.990561   20.044926   27.702389 H          1 MOL1         0.3605
      28    H19     18.150381   18.940567   26.808485 H          1 MOL1         0.3605
      29    H20     18.561024   20.397686   26.148415 H          1 MOL1         0.3605
@<TRIPOS>BOND
    1     1     2    1
    2     1     3    1
    3     1     4    1
    4     1     5    1
    5     5     6    1
    6     5     7    1
    7     5     8    1
    8     8     9    1
    9     8    10    1
   10     8    11    1
   11    11    12    1
   12    11    13    1
   13    11    14    1
   14    14    15    1
   15    14    16    1
   16    14    17    1
   17    17    18    1
   18    17    19    1
   19    17    20    1
   20    20    21    1
   21    20    22    1
   22    22    23    1
   23    22    24    1
   24    22    25    1
   25    20    26    1
   26    26    27    1
   27    26    28    1
   28    26    29    1
@<TRIPOS>SUBSTRUCTURE
       1 MOL1            1 RESIDUE      1      MOL     
@<SCITEGIC>MOL_PROPERTY
VM2 Rank
SciTegic.value.IntegerValue
5

@<SCITEGIC>MOL_PROPERTY
Conf_Id
SciTegic.value.IntegerValue
231

@<SCITEGIC>MOL_PROPERTY
Probability
SciTegic.value.DoubleValue
3.80

@<SCITEGIC>MOL_PROPERTY
Sum Probability
SciTegic.value.DoubleValue
28.25

@<SCITEGIC>MOL_PROPERTY
Delta G
SciTegic.value.DoubleValue
0.599

@<SCITEGIC>MOL_PROPERTY
G
SciTegic.value.DoubleValue
34.301

@<SCITEGIC>MOL_PROPERTY
E
SciTegic.value.DoubleValue
-3.195

@<SCITEGIC>MOL_PROPERTY
-TS
SciTegic.value.DoubleValue
37.495

@<SCITEGIC>MOL_PROPERTY
U+W
SciTegic.value.DoubleValue
-27.339

@<SCITEGIC>MOL_PROPERTY
U
SciTegic.value.DoubleValue
24.573

@<SCITEGIC>MOL_PROPERTY
W
SciTegic.value.DoubleValue
-51.912

@<SCITEGIC>MOL_PROPERTY
W(PB)
SciTegic.value.DoubleValue
-54.449

@<SCITEGIC>MOL_PROPERTY
W(SA)
SciTegic.value.DoubleValue
2.537

@<SCITEGIC>MOL_PROPERTY
Valence
SciTegic.value.DoubleValue
3.669

@<SCITEGIC>MOL_PROPERTY
Coulomb
SciTegic.value.DoubleValue
19.705

@<SCITEGIC>MOL_PROPERTY
VdW
SciTegic.value.DoubleValue
1.199

@<SCITEGIC>MOL_PROPERTY
VdW6
SciTegic.value.DoubleValue
-8.560

@<SCITEGIC>MOL_PROPERTY
VdW12
SciTegic.value.DoubleValue
9.759

@<SCITEGIC>MOL_PROPERTY
Bond
SciTegic.value.DoubleValue
0.223

@<SCITEGIC>MOL_PROPERTY
Angle
SciTegic.value.DoubleValue
1.119

@<SCITEGIC>MOL_PROPERTY
Pdih
SciTegic.value.DoubleValue
2.327

@<SCITEGIC>MOL_PROPERTY
Idih
SciTegic.value.DoubleValue
0.000

@<SCITEGIC>MOL_PROPERTY
Tether
SciTegic.value.DoubleValue
0.000

@<TRIPOS>MOLECULE
guest-s15_vm2.mol2 : vm2 ligand conformer 6
          29          28           1
SMALL
USER_CHARGES
 
@<TRIPOS>ATOM
       1    C1      20.675084   18.987764   19.135391 C.3        1 MOL1        -0.2426
       2    H1      21.275985   18.114448   19.420829 H          1 MOL1         0.0959
       3    H2      20.335773   18.840169   18.101888 H          1 MOL1         0.0959
       4    H3      21.326079   19.871577   19.153502 H          1 MOL1         0.0959
       5    C2      19.470813   19.166585   20.083929 C.3        1 MOL1        -0.1410
       6    H4      18.821414   18.282246   20.019642 H          1 MOL1         0.0948
       7    H5      18.870695   20.025580   19.752476 H          1 MOL1         0.0948
       8    C3      19.921046   19.377203   21.546497 C.3        1 MOL1        -0.1435
       9    H6      20.526946   18.517433   21.860357 H          1 MOL1         0.0948
      10    H7      20.567711   20.263480   21.605861 H          1 MOL1         0.0948
      11    C4      18.713635   19.552099   22.498908 C.3        1 MOL1        -0.1435
      12    H8      18.096488   18.643100   22.486539 H          1 MOL1         0.0948
      13    H9      18.075761   20.362470   22.119678 H          1 MOL1         0.0948
      14    C5      19.114201   19.887779   23.956699 C.3        1 MOL1        -0.1435
      15    H10     19.729167   20.798362   23.968101 H          1 MOL1         0.0948
      16    H11     18.198368   20.126367   24.513131 H          1 MOL1         0.0948
      17    C6      19.869867   18.737959   24.671554 C.3        1 MOL1        -0.1500
      18    H12     20.796835   18.519423   24.127300 H          1 MOL1         0.0948
      19    H13     19.264948   17.821943   24.644050 H          1 MOL1         0.0948
      20    C7      20.234230   19.075118   26.133879 C.3        1 MOL1         0.1162
      21    H14     20.804580   20.009104   26.138692 H          1 MOL1         0.0910
      22    C8      21.116107   17.968148   26.733503 C.3        1 MOL1        -0.2491
      23    H15     21.407747   18.217907   27.761112 H          1 MOL1         0.0959
      24    H16     20.588188   17.006422   26.752009 H          1 MOL1         0.0959
      25    H17     22.035626   17.841986   26.148417 H          1 MOL1         0.0959
      26    N1      19.021017   19.303343   26.993642 N.4        1 MOL1        -0.5987
      27    H18     18.431093   18.468012   27.035418 H          1 MOL1         0.3605
      28    H19     18.446068   20.069720   26.633530 H          1 MOL1         0.3605
      29    H20     19.283030   19.542369   27.954298 H          1 MOL1         0.3605
@<TRIPOS>BOND
    1     1     2    1
    2     1     3    1
    3     1     4    1
    4     1     5    1
    5     5     6    1
    6     5     7    1
    7     5     8    1
    8     8     9    1
    9     8    10    1
   10     8    11    1
   11    11    12    1
   12    11    13    1
   13    11    14    1
   14    14    15    1
   15    14    16    1
   16    14    17    1
   17    17    18    1
   18    17    19    1
   19    17    20    1
   20    20    21    1
   21    20    22    1
   22    22    23    1
   23    22    24    1
   24    22    25    1
   25    20    26    1
   26    26    27    1
   27    26    28    1
   28    26    29    1
@<TRIPOS>SUBSTRUCTURE
       1 MOL1            1 RESIDUE      1      MOL     
@<SCITEGIC>MOL_PROPERTY
VM2 Rank
SciTegic.value.IntegerValue
6

@<SCITEGIC>MOL_PROPERTY
Conf_Id
SciTegic.value.IntegerValue
625

@<SCITEGIC>MOL_PROPERTY
Probability
SciTegic.value.DoubleValue
3.49

@<SCITEGIC>MOL_PROPERTY
Sum Probability
SciTegic.value.DoubleValue
31.74

@<SCITEGIC>MOL_PROPERTY
Delta G
SciTegic.value.DoubleValue
0.650

@<SCITEGIC>MOL_PROPERTY
G
SciTegic.value.DoubleValue
34.353

@<SCITEGIC>MOL_PROPERTY
E
SciTegic.value.DoubleValue
-3.103

@<SCITEGIC>MOL_PROPERTY
-TS
SciTegic.value.DoubleValue
37.456

@<SCITEGIC>MOL_PROPERTY
U+W
SciTegic.value.DoubleValue
-27.248

@<SCITEGIC>MOL_PROPERTY
U
SciTegic.value.DoubleValue
24.710

@<SCITEGIC>MOL_PROPERTY
W
SciTegic.value.DoubleValue
-51.958

@<SCITEGIC>MOL_PROPERTY
W(PB)
SciTegic.value.DoubleValue
-54.511

@<SCITEGIC>MOL_PROPERTY
W(SA)
SciTegic.value.DoubleValue
2.553

@<SCITEGIC>MOL_PROPERTY
Valence
SciTegic.value.DoubleValue
3.735

@<SCITEGIC>MOL_PROPERTY
Coulomb
SciTegic.value.DoubleValue
19.760

@<SCITEGIC>MOL_PROPERTY
VdW
SciTegic.value.DoubleValue
1.216

@<SCITEGIC>MOL_PROPERTY
VdW6
SciTegic.value.DoubleValue
-8.624

@<SCITEGIC>MOL_PROPERTY
VdW12
SciTegic.value.DoubleValue
9.840

@<SCITEGIC>MOL_PROPERTY
Bond
SciTegic.value.DoubleValue
0.236

@<SCITEGIC>MOL_PROPERTY
Angle
SciTegic.value.DoubleValue
1.168

@<SCITEGIC>MOL_PROPERTY
Pdih
SciTegic.value.DoubleValue
2.331

@<SCITEGIC>MOL_PROPERTY
Idih
SciTegic.value.DoubleValue
0.000

@<SCITEGIC>MOL_PROPERTY
Tether
SciTegic.value.DoubleValue
0.000

@<TRIPOS>MOLECULE
guest-s15_vm2.mol2 : vm2 ligand conformer 7
          29          28           1
SMALL
USER_CHARGES
 
@<TRIPOS>ATOM
       1    C1      19.704526   20.025454   19.021299 C.3        1 MOL1        -0.2426
       2    H1      20.461133   20.391535   18.315198 H          1 MOL1         0.0959
       3    H2      19.242350   19.129891   18.585850 H          1 MOL1         0.0959
       4    H3      18.930335   20.798003   19.116391 H          1 MOL1         0.0959
       5    C2      20.343995   19.709757   20.389958 C.3        1 MOL1        -0.1410
       6    H4      20.826796   20.614957   20.784172 H          1 MOL1         0.0948
       7    H5      21.136292   18.959616   20.257853 H          1 MOL1         0.0948
       8    C3      19.299469   19.192068   21.403335 C.3        1 MOL1        -0.1435
       9    H6      18.508605   19.944221   21.530515 H          1 MOL1         0.0948
      10    H7      18.817885   18.289032   21.003315 H          1 MOL1         0.0948
      11    C4      19.936279   18.874333   22.774914 C.3        1 MOL1        -0.1435
      12    H8      20.422315   19.779015   23.163567 H          1 MOL1         0.0948
      13    H9      20.724210   18.119327   22.646283 H          1 MOL1         0.0948
      14    C5      18.887062   18.357849   23.788372 C.3        1 MOL1        -0.1435
      15    H10     18.109058   19.118141   23.938879 H          1 MOL1         0.0948
      16    H11     18.377154   17.482661   23.362465 H          1 MOL1         0.0948
      17    C6      19.503141   17.951447   25.151601 C.3        1 MOL1        -0.1500
      18    H12     20.203481   17.121352   24.988999 H          1 MOL1         0.0948
      19    H13     18.708799   17.559435   25.800620 H          1 MOL1         0.0948
      20    C7      20.240704   19.096418   25.881381 C.3        1 MOL1         0.1162
      21    H14     21.040823   19.461395   25.230743 H          1 MOL1         0.0910
      22    C8      20.878562   18.579361   27.180430 C.3        1 MOL1        -0.2491
      23    H15     20.116584   18.204830   27.875438 H          1 MOL1         0.0959
      24    H16     21.581167   17.763049   26.971315 H          1 MOL1         0.0959
      25    H17     21.436909   19.378418   27.683564 H          1 MOL1         0.0959
      26    N1      19.342262   20.269313   26.162712 N.4        1 MOL1        -0.5987
      27    H18     19.851289   21.029686   26.622409 H          1 MOL1         0.3605
      28    H19     18.565751   20.005276   26.774927 H          1 MOL1         0.3605
      29    H20     18.941090   20.644812   25.299003 H          1 MOL1         0.3605
@<TRIPOS>BOND
    1     1     2    1
    2     1     3    1
    3     1     4    1
    4     1     5    1
    5     5     6    1
    6     5     7    1
    7     5     8    1
    8     8     9    1
    9     8    10    1
   10     8    11    1
   11    11    12    1
   12    11    13    1
   13    11    14    1
   14    14    15    1
   15    14    16    1
   16    14    17    1
   17    17    18    1
   18    17    19    1
   19    17    20    1
   20    20    21    1
   21    20    22    1
   22    22    23    1
   23    22    24    1
   24    22    25    1
   25    20    26    1
   26    26    27    1
   27    26    28    1
   28    26    29    1
@<TRIPOS>SUBSTRUCTURE
       1 MOL1            1 RESIDUE      1      MOL     
@<SCITEGIC>MOL_PROPERTY
VM2 Rank
SciTegic.value.IntegerValue
7

@<SCITEGIC>MOL_PROPERTY
Conf_Id
SciTegic.value.IntegerValue
1296

@<SCITEGIC>MOL_PROPERTY
Probability
SciTegic.value.DoubleValue
3.43

@<SCITEGIC>MOL_PROPERTY
Sum Probability
SciTegic.value.DoubleValue
35.17

@<SCITEGIC>MOL_PROPERTY
Delta G
SciTegic.value.DoubleValue
0.661

@<SCITEGIC>MOL_PROPERTY
G
SciTegic.value.DoubleValue
34.363

@<SCITEGIC>MOL_PROPERTY
E
SciTegic.value.DoubleValue
-3.215

@<SCITEGIC>MOL_PROPERTY
-TS
SciTegic.value.DoubleValue
37.578

@<SCITEGIC>MOL_PROPERTY
U+W
SciTegic.value.DoubleValue
-27.360

@<SCITEGIC>MOL_PROPERTY
U
SciTegic.value.DoubleValue
24.672

@<SCITEGIC>MOL_PROPERTY
W
SciTegic.value.DoubleValue
-52.032

@<SCITEGIC>MOL_PROPERTY
W(PB)
SciTegic.value.DoubleValue
-54.582

@<SCITEGIC>MOL_PROPERTY
W(SA)
SciTegic.value.DoubleValue
2.550

@<SCITEGIC>MOL_PROPERTY
Valence
SciTegic.value.DoubleValue
3.465

@<SCITEGIC>MOL_PROPERTY
Coulomb
SciTegic.value.DoubleValue
20.280

@<SCITEGIC>MOL_PROPERTY
VdW
SciTegic.value.DoubleValue
0.927

@<SCITEGIC>MOL_PROPERTY
VdW6
SciTegic.value.DoubleValue
-8.843

@<SCITEGIC>MOL_PROPERTY
VdW12
SciTegic.value.DoubleValue
9.770

@<SCITEGIC>MOL_PROPERTY
Bond
SciTegic.value.DoubleValue
0.217

@<SCITEGIC>MOL_PROPERTY
Angle
SciTegic.value.DoubleValue
1.094

@<SCITEGIC>MOL_PROPERTY
Pdih
SciTegic.value.DoubleValue
2.153

@<SCITEGIC>MOL_PROPERTY
Idih
SciTegic.value.DoubleValue
0.000

@<SCITEGIC>MOL_PROPERTY
Tether
SciTegic.value.DoubleValue
0.000

@<TRIPOS>MOLECULE
guest-s15_vm2.mol2 : vm2 ligand conformer 8
          29          28           1
SMALL
USER_CHARGES
 
@<TRIPOS>ATOM
       1    C1      18.622081   18.915923   19.291810 C.3        1 MOL1        -0.2426
       2    H1      18.857924   18.830807   18.223083 H          1 MOL1         0.0959
       3    H2      18.168256   17.969378   19.613263 H          1 MOL1         0.0959
       4    H3      17.874445   19.711142   19.409767 H          1 MOL1         0.0959
       5    C2      19.894942   19.226107   20.107623 C.3        1 MOL1        -0.1410
       6    H4      20.344590   20.159229   19.740239 H          1 MOL1         0.0948
       7    H5      20.635850   18.431024   19.943919 H          1 MOL1         0.0948
       8    C3      19.590466   19.351945   21.616768 C.3        1 MOL1        -0.1435
       9    H6      18.851162   20.149073   21.775496 H          1 MOL1         0.0948
      10    H7      19.133817   18.417662   21.968612 H          1 MOL1         0.0948
      11    C4      20.866899   19.658698   22.436247 C.3        1 MOL1        -0.1435
      12    H8      21.351351   20.553856   22.022278 H          1 MOL1         0.0948
      13    H9      21.587533   18.837275   22.321175 H          1 MOL1         0.0948
      14    C5      20.592056   19.901309   23.940554 C.3        1 MOL1        -0.1435
      15    H10     21.530334   20.214360   24.419342 H          1 MOL1         0.0948
      16    H11     19.892947   20.741337   24.048222 H          1 MOL1         0.0948
      17    C6      20.043519   18.651941   24.676073 C.3        1 MOL1        -0.1500
      18    H12     20.700295   17.797744   24.464193 H          1 MOL1         0.0948
      19    H13     19.050518   18.390189   24.289358 H          1 MOL1         0.0948
      20    C7      19.958541   18.847324   26.205120 C.3        1 MOL1         0.1162
      21    H14     20.952284   19.122827   26.571464 H          1 MOL1         0.0910
      22    C8      19.537960   17.536878   26.889304 C.3        1 MOL1        -0.2491
      23    H15     18.542321   17.217167   26.557003 H          1 MOL1         0.0959
      24    H16     20.248738   16.732701   26.661597 H          1 MOL1         0.0959
      25    H17     19.511789   17.658939   27.979174 H          1 MOL1         0.0959
      26    N1      19.029536   19.965875   26.590502 N.4        1 MOL1        -0.5987
      27    H18     19.002040   20.096349   27.605821 H          1 MOL1         0.3605
      28    H19     18.072560   19.779963   26.278888 H          1 MOL1         0.3605
      29    H20     19.322586   20.854303   26.175116 H          1 MOL1         0.3605
@<TRIPOS>BOND
    1     1     2    1
    2     1     3    1
    3     1     4    1
    4     1     5    1
    5     5     6    1
    6     5     7    1
    7     5     8    1
    8     8     9    1
    9     8    10    1
   10     8    11    1
   11    11    12    1
   12    11    13    1
   13    11    14    1
   14    14    15    1
   15    14    16    1
   16    14    17    1
   17    17    18    1
   18    17    19    1
   19    17    20    1
   20    20    21    1
   21    20    22    1
   22    22    23    1
   23    22    24    1
   24    22    25    1
   25    20    26    1
   26    26    27    1
   27    26    28    1
   28    26    29    1
@<TRIPOS>SUBSTRUCTURE
       1 MOL1            1 RESIDUE      1      MOL     
@<SCITEGIC>MOL_PROPERTY
VM2 Rank
SciTegic.value.IntegerValue
8

@<SCITEGIC>MOL_PROPERTY
Conf_Id
SciTegic.value.IntegerValue
987

@<SCITEGIC>MOL_PROPERTY
Probability
SciTegic.value.DoubleValue
3.41

@<SCITEGIC>MOL_PROPERTY
Sum Probability
SciTegic.value.DoubleValue
38.58

@<SCITEGIC>MOL_PROPERTY
Delta G
SciTegic.value.DoubleValue
0.663

@<SCITEGIC>MOL_PROPERTY
G
SciTegic.value.DoubleValue
34.366

@<SCITEGIC>MOL_PROPERTY
E
SciTegic.value.DoubleValue
-3.137

@<SCITEGIC>MOL_PROPERTY
-TS
SciTegic.value.DoubleValue
37.503

@<SCITEGIC>MOL_PROPERTY
U+W
SciTegic.value.DoubleValue
-27.282

@<SCITEGIC>MOL_PROPERTY
U
SciTegic.value.DoubleValue
24.740

@<SCITEGIC>MOL_PROPERTY
W
SciTegic.value.DoubleValue
-52.022

@<SCITEGIC>MOL_PROPERTY
W(PB)
SciTegic.value.DoubleValue
-54.547

@<SCITEGIC>MOL_PROPERTY
W(SA)
SciTegic.value.DoubleValue
2.525

@<SCITEGIC>MOL_PROPERTY
Valence
SciTegic.value.DoubleValue
3.693

@<SCITEGIC>MOL_PROPERTY
Coulomb
SciTegic.value.DoubleValue
19.918

@<SCITEGIC>MOL_PROPERTY
VdW
SciTegic.value.DoubleValue
1.129

@<SCITEGIC>MOL_PROPERTY
VdW6
SciTegic.value.DoubleValue
-8.666

@<SCITEGIC>MOL_PROPERTY
VdW12
SciTegic.value.DoubleValue
9.795

@<SCITEGIC>MOL_PROPERTY
Bond
SciTegic.value.DoubleValue
0.229

@<SCITEGIC>MOL_PROPERTY
Angle
SciTegic.value.DoubleValue
1.104

@<SCITEGIC>MOL_PROPERTY
Pdih
SciTegic.value.DoubleValue
2.361

@<SCITEGIC>MOL_PROPERTY
Idih
SciTegic.value.DoubleValue
0.000

@<SCITEGIC>MOL_PROPERTY
Tether
SciTegic.value.DoubleValue
0.000

@<TRIPOS>MOLECULE
guest-s15_vm2.mol2 : vm2 ligand conformer 9
          29          28           1
SMALL
USER_CHARGES
 
@<TRIPOS>ATOM
       1    C1      19.169686   20.265972   19.241573 C.3        1 MOL1        -0.2426
       2    H1      18.220983   20.749075   18.973965 H          1 MOL1         0.0959
       3    H2      19.958314   21.028917   19.206457 H          1 MOL1         0.0959
       4    H3      19.390438   19.510373   18.476344 H          1 MOL1         0.0959
       5    C2      19.079190   19.626659   20.643396 C.3        1 MOL1        -0.1410
       6    H4      18.263950   18.889833   20.655628 H          1 MOL1         0.0948
       7    H5      18.817265   20.404525   21.372660 H          1 MOL1         0.0948
       8    C3      20.407599   18.942857   21.044445 C.3        1 MOL1        -0.1435
       9    H6      20.691521   18.228115   20.259684 H          1 MOL1         0.0948
      10    H7      21.211614   19.690591   21.085419 H          1 MOL1         0.0948
      11    C4      20.333573   18.185483   22.393011 C.3        1 MOL1        -0.1435
      12    H8      21.274460   17.635693   22.533646 H          1 MOL1         0.0948
      13    H9      19.538301   17.428721   22.346427 H          1 MOL1         0.0948
      14    C5      20.103227   19.111502   23.611483 C.3        1 MOL1        -0.1435
      15    H10     20.871096   19.897435   23.624464 H          1 MOL1         0.0948
      16    H11     19.132185   19.612369   23.513891 H          1 MOL1         0.0948
      17    C6      20.148881   18.324469   24.943866 C.3        1 MOL1        -0.1500
      18    H12     21.105388   17.788626   25.007340 H          1 MOL1         0.0948
      19    H13     19.360346   17.560161   24.950789 H          1 MOL1         0.0948
      20    C7      20.004511   19.231330   26.185217 C.3        1 MOL1         0.1162
      21    H14     20.783999   19.998272   26.142256 H          1 MOL1         0.0910
      22    C8      20.203185   18.412753   27.470821 C.3        1 MOL1        -0.2491
      23    H15     20.138093   19.057713   28.355806 H          1 MOL1         0.0959
      24    H16     19.442264   17.627622   27.563117 H          1 MOL1         0.0959
      25    H17     21.190538   17.934410   27.479819 H          1 MOL1         0.0959
      26    N1      18.686149   19.954975   26.220188 N.4        1 MOL1        -0.5987
      27    H18     18.616013   20.564752   27.039910 H          1 MOL1         0.3605
      28    H19     17.901582   19.298785   26.258039 H          1 MOL1         0.3605
      29    H20     18.559323   20.541029   25.390702 H          1 MOL1         0.3605
@<TRIPOS>BOND
    1     1     2    1
    2     1     3    1
    3     1     4    1
    4     1     5    1
    5     5     6    1
    6     5     7    1
    7     5     8    1
    8     8     9    1
    9     8    10    1
   10     8    11    1
   11    11    12    1
   12    11    13    1
   13    11    14    1
   14    14    15    1
   15    14    16    1
   16    14    17    1
   17    17    18    1
   18    17    19    1
   19    17    20    1
   20    20    21    1
   21    20    22    1
   22    22    23    1
   23    22    24    1
   24    22    25    1
   25    20    26    1
   26    26    27    1
   27    26    28    1
   28    26    29    1
@<TRIPOS>SUBSTRUCTURE
       1 MOL1            1 RESIDUE      1      MOL     
@<SCITEGIC>MOL_PROPERTY
VM2 Rank
SciTegic.value.IntegerValue
9

@<SCITEGIC>MOL_PROPERTY
Conf_Id
SciTegic.value.IntegerValue
1134

@<SCITEGIC>MOL_PROPERTY
Probability
SciTegic.value.DoubleValue
3.25

@<SCITEGIC>MOL_PROPERTY
Sum Probability
SciTegic.value.DoubleValue
41.84

@<SCITEGIC>MOL_PROPERTY
Delta G
SciTegic.value.DoubleValue
0.692

@<SCITEGIC>MOL_PROPERTY
G
SciTegic.value.DoubleValue
34.394

@<SCITEGIC>MOL_PROPERTY
E
SciTegic.value.DoubleValue
-3.084

@<SCITEGIC>MOL_PROPERTY
-TS
SciTegic.value.DoubleValue
37.478

@<SCITEGIC>MOL_PROPERTY
U+W
SciTegic.value.DoubleValue
-27.228

@<SCITEGIC>MOL_PROPERTY
U
SciTegic.value.DoubleValue
25.011

@<SCITEGIC>MOL_PROPERTY
W
SciTegic.value.DoubleValue
-52.239

@<SCITEGIC>MOL_PROPERTY
W(PB)
SciTegic.value.DoubleValue
-54.750

@<SCITEGIC>MOL_PROPERTY
W(SA)
SciTegic.value.DoubleValue
2.511

@<SCITEGIC>MOL_PROPERTY
Valence
SciTegic.value.DoubleValue
3.709

@<SCITEGIC>MOL_PROPERTY
Coulomb
SciTegic.value.DoubleValue
20.124

@<SCITEGIC>MOL_PROPERTY
VdW
SciTegic.value.DoubleValue
1.178

@<SCITEGIC>MOL_PROPERTY
VdW6
SciTegic.value.DoubleValue
-8.623

@<SCITEGIC>MOL_PROPERTY
VdW12
SciTegic.value.DoubleValue
9.801

@<SCITEGIC>MOL_PROPERTY
Bond
SciTegic.value.DoubleValue
0.228

@<SCITEGIC>MOL_PROPERTY
Angle
SciTegic.value.DoubleValue
1.140

@<SCITEGIC>MOL_PROPERTY
Pdih
SciTegic.value.DoubleValue
2.340

@<SCITEGIC>MOL_PROPERTY
Idih
SciTegic.value.DoubleValue
0.000

@<SCITEGIC>MOL_PROPERTY
Tether
SciTegic.value.DoubleValue
0.000

@<TRIPOS>MOLECULE
guest-s15_vm2.mol2 : vm2 ligand conformer 10
          29          28           1
SMALL
USER_CHARGES
 
@<TRIPOS>ATOM
       1    C1      19.808744   20.325776   19.184543 C.3        1 MOL1        -0.2426
       2    H1      19.663945   19.531961   18.440147 H          1 MOL1         0.0959
       3    H2      18.877449   20.902838   19.254798 H          1 MOL1         0.0959
       4    H3      20.593994   20.996797   18.812855 H          1 MOL1         0.0959
       5    C2      20.200098   19.736158   20.556113 C.3        1 MOL1        -0.1410
       6    H4      20.375740   20.559942   21.260492 H          1 MOL1         0.0948
       7    H5      21.148969   19.190113   20.460421 H          1 MOL1         0.0948
       8    C3      19.105418   18.789584   21.102605 C.3        1 MOL1        -0.1435
       9    H6      18.171001   19.348914   21.248300 H          1 MOL1         0.0948
      10    H7      18.889589   18.020723   20.347897 H          1 MOL1         0.0948
      11    C4      19.499158   18.083178   22.423050 C.3        1 MOL1        -0.1435
      12    H8      20.424222   17.510064   22.271091 H          1 MOL1         0.0948
      13    H9      18.719157   17.349892   22.670561 H          1 MOL1         0.0948
      14    C5      19.674559   19.053686   23.615681 C.3        1 MOL1        -0.1435
      15    H10     20.505847   19.743125   23.417949 H          1 MOL1         0.0948
      16    H11     18.767722   19.664127   23.718927 H          1 MOL1         0.0948
      17    C6      19.953421   18.292766   24.934651 C.3        1 MOL1        -0.1500
      18    H12     20.828535   17.644777   24.791787 H          1 MOL1         0.0948
      19    H13     19.108400   17.631522   25.168479 H          1 MOL1         0.0948
      20    C7      20.221085   19.234689   26.128409 C.3        1 MOL1         0.1162
      21    H14     21.049981   19.898055   25.862849 H          1 MOL1         0.0910
      22    C8      20.630213   18.423424   27.368057 C.3        1 MOL1        -0.2491
      23    H15     20.857293   19.088897   28.210072 H          1 MOL1         0.0959
      24    H16     19.828973   17.740871   27.678032 H          1 MOL1         0.0959
      25    H17     21.527931   17.826420   27.164465 H          1 MOL1         0.0959
      26    N1      19.043304   20.116738   26.440891 N.4        1 MOL1        -0.5987
      27    H18     18.786518   20.695904   25.636960 H          1 MOL1         0.3605
      28    H19     19.245370   20.747986   27.221509 H          1 MOL1         0.3605
      29    H20     18.221386   19.563811   26.698329 H          1 MOL1         0.3605
@<TRIPOS>BOND
    1     1     2    1
    2     1     3    1
    3     1     4    1
    4     1     5    1
    5     5     6    1
    6     5     7    1
    7     5     8    1
    8     8     9    1
    9     8    10    1
   10     8    11    1
   11    11    12    1
   12    11    13    1
   13    11    14    1
   14    14    15    1
   15    14    16    1
   16    14    17    1
   17    17    18    1
   18    17    19    1
   19    17    20    1
   20    20    21    1
   21    20    22    1
   22    22    23    1
   23    22    24    1
   24    22    25    1
   25    20    26    1
   26    26    27    1
   27    26    28    1
   28    26    29    1
@<TRIPOS>SUBSTRUCTURE
       1 MOL1            1 RESIDUE      1      MOL     
@<SCITEGIC>MOL_PROPERTY
VM2 Rank
SciTegic.value.IntegerValue
10

@<SCITEGIC>MOL_PROPERTY
Conf_Id
SciTegic.value.IntegerValue
1561

@<SCITEGIC>MOL_PROPERTY
Probability
SciTegic.value.DoubleValue
3.21

@<SCITEGIC>MOL_PROPERTY
Sum Probability
SciTegic.value.DoubleValue
45.05

@<SCITEGIC>MOL_PROPERTY
Delta G
SciTegic.value.DoubleValue
0.699

@<SCITEGIC>MOL_PROPERTY
G
SciTegic.value.DoubleValue
34.401

@<SCITEGIC>MOL_PROPERTY
E
SciTegic.value.DoubleValue
-3.085

@<SCITEGIC>MOL_PROPERTY
-TS
SciTegic.value.DoubleValue
37.486

@<SCITEGIC>MOL_PROPERTY
U+W
SciTegic.value.DoubleValue
-27.230

@<SCITEGIC>MOL_PROPERTY
U
SciTegic.value.DoubleValue
24.820

@<SCITEGIC>MOL_PROPERTY
W
SciTegic.value.DoubleValue
-52.050

@<SCITEGIC>MOL_PROPERTY
W(PB)
SciTegic.value.DoubleValue
-54.564

@<SCITEGIC>MOL_PROPERTY
W(SA)
SciTegic.value.DoubleValue
2.514

@<SCITEGIC>MOL_PROPERTY
Valence
SciTegic.value.DoubleValue
3.711

@<SCITEGIC>MOL_PROPERTY
Coulomb
SciTegic.value.DoubleValue
19.938

@<SCITEGIC>MOL_PROPERTY
VdW
SciTegic.value.DoubleValue
1.171

@<SCITEGIC>MOL_PROPERTY
VdW6
SciTegic.value.DoubleValue
-8.614

@<SCITEGIC>MOL_PROPERTY
VdW12
SciTegic.value.DoubleValue
9.786

@<SCITEGIC>MOL_PROPERTY
Bond
SciTegic.value.DoubleValue
0.226

@<SCITEGIC>MOL_PROPERTY
Angle
SciTegic.value.DoubleValue
1.142

@<SCITEGIC>MOL_PROPERTY
Pdih
SciTegic.value.DoubleValue
2.342

@<SCITEGIC>MOL_PROPERTY
Idih
SciTegic.value.DoubleValue
0.000

@<SCITEGIC>MOL_PROPERTY
Tether
SciTegic.value.DoubleValue
0.000

@<TRIPOS>MOLECULE
guest-s15_vm2.mol2 : vm2 ligand conformer 11
          29          28           1
SMALL
USER_CHARGES
 
@<TRIPOS>ATOM
       1    C1      20.202348   19.677452   18.979616 C.3        1 MOL1        -0.2426
       2    H1      19.497373   18.945621   18.564061 H          1 MOL1         0.0959
       3    H2      20.188687   20.563885   18.332241 H          1 MOL1         0.0959
       4    H3      21.210122   19.244100   18.936644 H          1 MOL1         0.0959
       5    C2      19.821842   20.053931   20.427123 C.3        1 MOL1        -0.1410
       6    H4      18.824205   20.514988   20.433689 H          1 MOL1         0.0948
       7    H5      20.523791   20.811344   20.803258 H          1 MOL1         0.0948
       8    C3      19.833489   18.822844   21.359980 C.3        1 MOL1        -0.1435
       9    H6      19.132408   18.067759   20.978235 H          1 MOL1         0.0948
      10    H7      20.831957   18.364211   21.348649 H          1 MOL1         0.0948
      11    C4      19.452872   19.195902   22.810363 C.3        1 MOL1        -0.1435
      12    H8      18.452811   19.651023   22.821132 H          1 MOL1         0.0948
      13    H9      20.153665   19.955572   23.181468 H          1 MOL1         0.0948
      14    C5      19.468994   17.961333   23.743092 C.3        1 MOL1        -0.1435
      15    H10     18.804789   17.189926   23.329524 H          1 MOL1         0.0948
      16    H11     20.473411   17.517849   23.757055 H          1 MOL1         0.0948
      17    C6      19.007867   18.281364   25.188481 C.3        1 MOL1        -0.1500
      18    H12     19.030530   17.358488   25.783090 H          1 MOL1         0.0948
      19    H13     17.956400   18.595823   25.154794 H          1 MOL1         0.0948
      20    C7      19.828702   19.374817   25.912170 C.3        1 MOL1         0.1162
      21    H14     19.791950   20.288628   25.311899 H          1 MOL1         0.0910
      22    C8      21.302261   18.968625   26.091452 C.3        1 MOL1        -0.2491
      23    H15     21.850586   19.738656   26.647934 H          1 MOL1         0.0959
      24    H16     21.389060   18.023684   26.642082 H          1 MOL1         0.0959
      25    H17     21.802526   18.849733   25.123289 H          1 MOL1         0.0959
      26    N1      19.217625   19.719733   27.241723 N.4        1 MOL1        -0.5987
      27    H18     19.734609   20.471061   27.707481 H          1 MOL1         0.3605
      28    H19     19.215841   18.913754   27.872714 H          1 MOL1         0.3605
      29    H20     18.248072   20.033946   27.141113 H          1 MOL1         0.3605
@<TRIPOS>BOND
    1     1     2    1
    2     1     3    1
    3     1     4    1
    4     1     5    1
    5     5     6    1
    6     5     7    1
    7     5     8    1
    8     8     9    1
    9     8    10    1
   10     8    11    1
   11    11    12    1
   12    11    13    1
   13    11    14    1
   14    14    15    1
   15    14    16    1
   16    14    17    1
   17    17    18    1
   18    17    19    1
   19    17    20    1
   20    20    21    1
   21    20    22    1
   22    22    23    1
   23    22    24    1
   24    22    25    1
   25    20    26    1
   26    26    27    1
   27    26    28    1
   28    26    29    1
@<TRIPOS>SUBSTRUCTURE
       1 MOL1            1 RESIDUE      1      MOL     
@<SCITEGIC>MOL_PROPERTY
VM2 Rank
SciTegic.value.IntegerValue
11

@<SCITEGIC>MOL_PROPERTY
Conf_Id
SciTegic.value.IntegerValue
1562

@<SCITEGIC>MOL_PROPERTY
Probability
SciTegic.value.DoubleValue
2.25

@<SCITEGIC>MOL_PROPERTY
Sum Probability
SciTegic.value.DoubleValue
47.30

@<SCITEGIC>MOL_PROPERTY
Delta G
SciTegic.value.DoubleValue
0.912

@<SCITEGIC>MOL_PROPERTY
G
SciTegic.value.DoubleValue
34.614

@<SCITEGIC>MOL_PROPERTY
E
SciTegic.value.DoubleValue
-3.060

@<SCITEGIC>MOL_PROPERTY
-TS
SciTegic.value.DoubleValue
37.674

@<SCITEGIC>MOL_PROPERTY
U+W
SciTegic.value.DoubleValue
-27.205

@<SCITEGIC>MOL_PROPERTY
U
SciTegic.value.DoubleValue
24.848

@<SCITEGIC>MOL_PROPERTY
W
SciTegic.value.DoubleValue
-52.053

@<SCITEGIC>MOL_PROPERTY
W(PB)
SciTegic.value.DoubleValue
-54.585

@<SCITEGIC>MOL_PROPERTY
W(SA)
SciTegic.value.DoubleValue
2.533

@<SCITEGIC>MOL_PROPERTY
Valence
SciTegic.value.DoubleValue
3.959

@<SCITEGIC>MOL_PROPERTY
Coulomb
SciTegic.value.DoubleValue
19.891

@<SCITEGIC>MOL_PROPERTY
VdW
SciTegic.value.DoubleValue
0.998

@<SCITEGIC>MOL_PROPERTY
VdW6
SciTegic.value.DoubleValue
-9.070

@<SCITEGIC>MOL_PROPERTY
VdW12
SciTegic.value.DoubleValue
10.067

@<SCITEGIC>MOL_PROPERTY
Bond
SciTegic.value.DoubleValue
0.229

@<SCITEGIC>MOL_PROPERTY
Angle
SciTegic.value.DoubleValue
1.422

@<SCITEGIC>MOL_PROPERTY
Pdih
SciTegic.value.DoubleValue
2.308

@<SCITEGIC>MOL_PROPERTY
Idih
SciTegic.value.DoubleValue
0.000

@<SCITEGIC>MOL_PROPERTY
Tether
SciTegic.value.DoubleValue
0.000

@<TRIPOS>MOLECULE
guest-s15_vm2.mol2 : vm2 ligand conformer 12
          29          28           1
SMALL
USER_CHARGES
 
@<TRIPOS>ATOM
       1    C1      19.100167   20.045838   19.397655 C.3        1 MOL1        -0.2426
       2    H1      18.225148   20.177162   20.046151 H          1 MOL1         0.0959
       3    H2      19.703676   20.961640   19.443634 H          1 MOL1         0.0959
       4    H3      18.734393   19.936064   18.368533 H          1 MOL1         0.0959
       5    C2      19.932428   18.810673   19.810245 C.3        1 MOL1        -0.1410
       6    H4      20.722326   18.650540   19.063130 H          1 MOL1         0.0948
       7    H5      19.298965   17.912994   19.785241 H          1 MOL1         0.0948
       8    C3      20.589048   18.949245   21.204899 C.3        1 MOL1        -0.1435
       9    H6      21.246521   18.084115   21.367881 H          1 MOL1         0.0948
      10    H7      21.236676   19.836724   21.218821 H          1 MOL1         0.0948
      11    C4      19.565639   19.031588   22.362743 C.3        1 MOL1        -0.1435
      12    H8      18.887318   18.168571   22.314743 H          1 MOL1         0.0948
      13    H9      18.946613   19.931293   22.250077 H          1 MOL1         0.0948
      14    C5      20.261972   19.064367   23.742184 C.3        1 MOL1        -0.1435
      15    H10     20.882146   18.165014   23.850840 H          1 MOL1         0.0948
      16    H11     20.939086   19.928499   23.790118 H          1 MOL1         0.0948
      17    C6      19.237474   19.145777   24.900499 C.3        1 MOL1        -0.1500
      18    H12     18.600403   18.251330   24.894998 H          1 MOL1         0.0948
      19    H13     18.573648   20.001679   24.720264 H          1 MOL1         0.0948
      20    C7      19.884757   19.314703   26.294028 C.3        1 MOL1         0.1162
      21    H14     20.545839   20.186243   26.262097 H          1 MOL1         0.0910
      22    C8      20.717682   18.085709   26.700340 C.3        1 MOL1        -0.2491
      23    H15     21.119925   18.209571   27.713364 H          1 MOL1         0.0959
      24    H16     20.110443   17.172070   26.684911 H          1 MOL1         0.0959
      25    H17     21.571778   17.942655   26.028463 H          1 MOL1         0.0959
      26    N1      18.846833   19.608101   27.341406 N.4        1 MOL1        -0.5987
      27    H18     19.274471   19.759906   28.259454 H          1 MOL1         0.3605
      28    H19     18.183480   18.834485   27.437619 H          1 MOL1         0.3605
      29    H20     18.308306   20.448945   27.113645 H          1 MOL1         0.3605
@<TRIPOS>BOND
    1     1     2    1
    2     1     3    1
    3     1     4    1
    4     1     5    1
    5     5     6    1
    6     5     7    1
    7     5     8    1
    8     8     9    1
    9     8    10    1
   10     8    11    1
   11    11    12    1
   12    11    13    1
   13    11    14    1
   14    14    15    1
   15    14    16    1
   16    14    17    1
   17    17    18    1
   18    17    19    1
   19    17    20    1
   20    20    21    1
   21    20    22    1
   22    22    23    1
   23    22    24    1
   24    22    25    1
   25    20    26    1
   26    26    27    1
   27    26    28    1
   28    26    29    1
@<TRIPOS>SUBSTRUCTURE
       1 MOL1            1 RESIDUE      1      MOL     
@<SCITEGIC>MOL_PROPERTY
VM2 Rank
SciTegic.value.IntegerValue
12

@<SCITEGIC>MOL_PROPERTY
Conf_Id
SciTegic.value.IntegerValue
1606

@<SCITEGIC>MOL_PROPERTY
Probability
SciTegic.value.DoubleValue
1.86

@<SCITEGIC>MOL_PROPERTY
Sum Probability
SciTegic.value.DoubleValue
49.16

@<SCITEGIC>MOL_PROPERTY
Delta G
SciTegic.value.DoubleValue
1.024

@<SCITEGIC>MOL_PROPERTY
G
SciTegic.value.DoubleValue
34.727

@<SCITEGIC>MOL_PROPERTY
E
SciTegic.value.DoubleValue
-2.782

@<SCITEGIC>MOL_PROPERTY
-TS
SciTegic.value.DoubleValue
37.509

@<SCITEGIC>MOL_PROPERTY
U+W
SciTegic.value.DoubleValue
-26.927

@<SCITEGIC>MOL_PROPERTY
U
SciTegic.value.DoubleValue
24.926

@<SCITEGIC>MOL_PROPERTY
W
SciTegic.value.DoubleValue
-51.852

@<SCITEGIC>MOL_PROPERTY
W(PB)
SciTegic.value.DoubleValue
-54.366

@<SCITEGIC>MOL_PROPERTY
W(SA)
SciTegic.value.DoubleValue
2.514

@<SCITEGIC>MOL_PROPERTY
Valence
SciTegic.value.DoubleValue
4.212

@<SCITEGIC>MOL_PROPERTY
Coulomb
SciTegic.value.DoubleValue
19.386

@<SCITEGIC>MOL_PROPERTY
VdW
SciTegic.value.DoubleValue
1.329

@<SCITEGIC>MOL_PROPERTY
VdW6
SciTegic.value.DoubleValue
-8.714

@<SCITEGIC>MOL_PROPERTY
VdW12
SciTegic.value.DoubleValue
10.043

@<SCITEGIC>MOL_PROPERTY
Bond
SciTegic.value.DoubleValue
0.235

@<SCITEGIC>MOL_PROPERTY
Angle
SciTegic.value.DoubleValue
1.400

@<SCITEGIC>MOL_PROPERTY
Pdih
SciTegic.value.DoubleValue
2.577

@<SCITEGIC>MOL_PROPERTY
Idih
SciTegic.value.DoubleValue
0.000

@<SCITEGIC>MOL_PROPERTY
Tether
SciTegic.value.DoubleValue
0.000

@<TRIPOS>MOLECULE
guest-s15_vm2.mol2 : vm2 ligand conformer 13
          29          28           1
SMALL
USER_CHARGES
 
@<TRIPOS>ATOM
       1    C1      18.912324   18.726128   19.381497 C.3        1 MOL1        -0.2426
       2    H1      18.589288   18.975052   18.362371 H          1 MOL1         0.0959
       3    H2      19.250839   17.681888   19.380820 H          1 MOL1         0.0959
       4    H3      18.033601   18.802817   20.033742 H          1 MOL1         0.0959
       5    C2      20.042629   19.676324   19.837625 C.3        1 MOL1        -0.1410
       6    H4      19.670427   20.710125   19.858814 H          1 MOL1         0.0948
       7    H5      20.847052   19.654384   19.089170 H          1 MOL1         0.0948
       8    C3      20.638099   19.306005   21.217358 C.3        1 MOL1        -0.1435
       9    H6      21.026883   18.278854   21.185136 H          1 MOL1         0.0948
      10    H7      21.501521   19.957518   21.410564 H          1 MOL1         0.0948
      11    C4      19.628885   19.446154   22.382066 C.3        1 MOL1        -0.1435
      12    H8      18.793480   18.748317   22.238724 H          1 MOL1         0.0948
      13    H9      19.203669   20.459245   22.378060 H          1 MOL1         0.0948
      14    C5      20.290852   19.168090   23.750723 C.3        1 MOL1        -0.1435
      15    H10     20.722593   18.158738   23.739301 H          1 MOL1         0.0948
      16    H11     21.121533   19.870422   23.906175 H          1 MOL1         0.0948
      17    C6      19.278659   19.300136   24.915151 C.3        1 MOL1        -0.1500
      18    H12     18.480670   18.554766   24.798687 H          1 MOL1         0.0948
      19    H13     18.796891   20.284648   24.849110 H          1 MOL1         0.0948
      20    C7      19.918622   19.162293   26.315453 C.3        1 MOL1         0.1162
      21    H14     20.736680   19.885204   26.391681 H          1 MOL1         0.0910
      22    C8      20.489156   17.753240   26.556974 C.3        1 MOL1        -0.2491
      23    H15     19.716612   16.984901   26.428337 H          1 MOL1         0.0959
      24    H16     21.312227   17.532457   25.867644 H          1 MOL1         0.0959
      25    H17     20.887879   17.667377   27.575308 H          1 MOL1         0.0959
      26    N1      18.936774   19.517629   27.397153 N.4        1 MOL1        -0.5987
      27    H18     19.367502   19.466082   28.324810 H          1 MOL1         0.3605
      28    H19     18.134243   18.882243   27.397294 H          1 MOL1         0.3605
      29    H20     18.576112   20.469178   27.281445 H          1 MOL1         0.3605
@<TRIPOS>BOND
    1     1     2    1
    2     1     3    1
    3     1     4    1
    4     1     5    1
    5     5     6    1
    6     5     7    1
    7     5     8    1
    8     8     9    1
    9     8    10    1
   10     8    11    1
   11    11    12    1
   12    11    13    1
   13    11    14    1
   14    14    15    1
   15    14    16    1
   16    14    17    1
   17    17    18    1
   18    17    19    1
   19    17    20    1
   20    20    21    1
   21    20    22    1
   22    22    23    1
   23    22    24    1
   24    22    25    1
   25    20    26    1
   26    26    27    1
   27    26    28    1
   28    26    29    1
@<TRIPOS>SUBSTRUCTURE
       1 MOL1            1 RESIDUE      1      MOL     
@<SCITEGIC>MOL_PROPERTY
VM2 Rank
SciTegic.value.IntegerValue
13

@<SCITEGIC>MOL_PROPERTY
Conf_Id
SciTegic.value.IntegerValue
905

@<SCITEGIC>MOL_PROPERTY
Probability
SciTegic.value.DoubleValue
1.70

@<SCITEGIC>MOL_PROPERTY
Sum Probability
SciTegic.value.DoubleValue
50.86

@<SCITEGIC>MOL_PROPERTY
Delta G
SciTegic.value.DoubleValue
1.077

@<SCITEGIC>MOL_PROPERTY
G
SciTegic.value.DoubleValue
34.780

@<SCITEGIC>MOL_PROPERTY
E
SciTegic.value.DoubleValue
-2.730

@<SCITEGIC>MOL_PROPERTY
-TS
SciTegic.value.DoubleValue
37.509

@<SCITEGIC>MOL_PROPERTY
U+W
SciTegic.value.DoubleValue
-26.874

@<SCITEGIC>MOL_PROPERTY
U
SciTegic.value.DoubleValue
24.913

@<SCITEGIC>MOL_PROPERTY
W
SciTegic.value.DoubleValue
-51.787

@<SCITEGIC>MOL_PROPERTY
W(PB)
SciTegic.value.DoubleValue
-54.314

@<SCITEGIC>MOL_PROPERTY
W(SA)
SciTegic.value.DoubleValue
2.527

@<SCITEGIC>MOL_PROPERTY
Valence
SciTegic.value.DoubleValue
4.213

@<SCITEGIC>MOL_PROPERTY
Coulomb
SciTegic.value.DoubleValue
19.377

@<SCITEGIC>MOL_PROPERTY
VdW
SciTegic.value.DoubleValue
1.323

@<SCITEGIC>MOL_PROPERTY
VdW6
SciTegic.value.DoubleValue
-8.715

@<SCITEGIC>MOL_PROPERTY
VdW12
SciTegic.value.DoubleValue
10.038

@<SCITEGIC>MOL_PROPERTY
Bond
SciTegic.value.DoubleValue
0.234

@<SCITEGIC>MOL_PROPERTY
Angle
SciTegic.value.DoubleValue
1.400

@<SCITEGIC>MOL_PROPERTY
Pdih
SciTegic.value.DoubleValue
2.579

@<SCITEGIC>MOL_PROPERTY
Idih
SciTegic.value.DoubleValue
0.000

@<SCITEGIC>MOL_PROPERTY
Tether
SciTegic.value.DoubleValue
0.000

@<TRIPOS>MOLECULE
guest-s15_vm2.mol2 : vm2 ligand conformer 14
          29          28           1
SMALL
USER_CHARGES
 
@<TRIPOS>ATOM
       1    C1      20.683391   19.459604   19.171790 C.3        1 MOL1        -0.2426
       2    H1      20.353488   19.675188   18.147229 H          1 MOL1         0.0959
       3    H2      21.387383   20.246733   19.471885 H          1 MOL1         0.0959
       4    H3      21.224107   18.504262   19.157865 H          1 MOL1         0.0959
       5    C2      19.476280   19.399585   20.131593 C.3        1 MOL1        -0.1410
       6    H4      18.774287   18.627807   19.786007 H          1 MOL1         0.0948
       7    H5      18.936706   20.356518   20.099374 H          1 MOL1         0.0948
       8    C3      19.913258   19.096401   21.581830 C.3        1 MOL1        -0.1435
       9    H6      20.450244   18.138238   21.609255 H          1 MOL1         0.0948
      10    H7      20.620456   19.868866   21.910819 H          1 MOL1         0.0948
      11    C4      18.703844   19.040104   22.545815 C.3        1 MOL1        -0.1435
      12    H8      17.971047   18.319244   22.157573 H          1 MOL1         0.0948
      13    H9      18.197489   20.015082   22.562868 H          1 MOL1         0.0948
      14    C5      19.080896   18.625432   23.989276 C.3        1 MOL1        -0.1435
      15    H10     18.152528   18.497586   24.561029 H          1 MOL1         0.0948
      16    H11     19.567879   17.641606   23.963741 H          1 MOL1         0.0948
      17    C6      19.994864   19.656076   24.706741 C.3        1 MOL1        -0.1500
      18    H12     19.545182   20.654504   24.628124 H          1 MOL1         0.0948
      19    H13     20.960833   19.716243   24.190127 H          1 MOL1         0.0948
      20    C7      20.263361   19.356045   26.200380 C.3        1 MOL1         0.1162
      21    H14     20.905101   20.156029   26.582427 H          1 MOL1         0.0910
      22    C8      21.010638   18.025543   26.396745 C.3        1 MOL1        -0.2491
      23    H15     20.387976   17.166435   26.119998 H          1 MOL1         0.0959
      24    H16     21.924129   17.998262   25.789803 H          1 MOL1         0.0959
      25    H17     21.304763   17.902022   27.446233 H          1 MOL1         0.0959
      26    N1      19.009468   19.397210   27.029829 N.4        1 MOL1        -0.5987
      27    H18     18.528121   20.296434   26.938139 H          1 MOL1         0.3605
      28    H19     19.213808   19.259214   28.023735 H          1 MOL1         0.3605
      29    H20     18.352848   18.665568   26.746987 H          1 MOL1         0.3605
@<TRIPOS>BOND
    1     1     2    1
    2     1     3    1
    3     1     4    1
    4     1     5    1
    5     5     6    1
    6     5     7    1
    7     5     8    1
    8     8     9    1
    9     8    10    1
   10     8    11    1
   11    11    12    1
   12    11    13    1
   13    11    14    1
   14    14    15    1
   15    14    16    1
   16    14    17    1
   17    17    18    1
   18    17    19    1
   19    17    20    1
   20    20    21    1
   21    20    22    1
   22    22    23    1
   23    22    24    1
   24    22    25    1
   25    20    26    1
   26    26    27    1
   27    26    28    1
   28    26    29    1
@<TRIPOS>SUBSTRUCTURE
       1 MOL1            1 RESIDUE      1      MOL     
@<SCITEGIC>MOL_PROPERTY
VM2 Rank
SciTegic.value.IntegerValue
14

@<SCITEGIC>MOL_PROPERTY
Conf_Id
SciTegic.value.IntegerValue
989

@<SCITEGIC>MOL_PROPERTY
Probability
SciTegic.value.DoubleValue
1.67

@<SCITEGIC>MOL_PROPERTY
Sum Probability
SciTegic.value.DoubleValue
52.53

@<SCITEGIC>MOL_PROPERTY
Delta G
SciTegic.value.DoubleValue
1.090

@<SCITEGIC>MOL_PROPERTY
G
SciTegic.value.DoubleValue
34.792

@<SCITEGIC>MOL_PROPERTY
E
SciTegic.value.DoubleValue
-2.850

@<SCITEGIC>MOL_PROPERTY
-TS
SciTegic.value.DoubleValue
37.643

@<SCITEGIC>MOL_PROPERTY
U+W
SciTegic.value.DoubleValue
-26.995

@<SCITEGIC>MOL_PROPERTY
U
SciTegic.value.DoubleValue
25.162

@<SCITEGIC>MOL_PROPERTY
W
SciTegic.value.DoubleValue
-52.157

@<SCITEGIC>MOL_PROPERTY
W(PB)
SciTegic.value.DoubleValue
-54.678

@<SCITEGIC>MOL_PROPERTY
W(SA)
SciTegic.value.DoubleValue
2.521

@<SCITEGIC>MOL_PROPERTY
Valence
SciTegic.value.DoubleValue
4.202

@<SCITEGIC>MOL_PROPERTY
Coulomb
SciTegic.value.DoubleValue
19.686

@<SCITEGIC>MOL_PROPERTY
VdW
SciTegic.value.DoubleValue
1.274

@<SCITEGIC>MOL_PROPERTY
VdW6
SciTegic.value.DoubleValue
-9.288

@<SCITEGIC>MOL_PROPERTY
VdW12
SciTegic.value.DoubleValue
10.561

@<SCITEGIC>MOL_PROPERTY
Bond
SciTegic.value.DoubleValue
0.271

@<SCITEGIC>MOL_PROPERTY
Angle
SciTegic.value.DoubleValue
1.436

@<SCITEGIC>MOL_PROPERTY
Pdih
SciTegic.value.DoubleValue
2.495

@<SCITEGIC>MOL_PROPERTY
Idih
SciTegic.value.DoubleValue
0.000

@<SCITEGIC>MOL_PROPERTY
Tether
SciTegic.value.DoubleValue
0.000

@<TRIPOS>MOLECULE
guest-s15_vm2.mol2 : vm2 ligand conformer 15
          29          28           1
SMALL
USER_CHARGES
 
@<TRIPOS>ATOM
       1    C1      20.459692   19.912440   19.135746 C.3        1 MOL1        -0.2426
       2    H1      21.387341   19.327960   19.080067 H          1 MOL1         0.0959
       3    H2      19.739324   19.478856   18.429837 H          1 MOL1         0.0959
       4    H3      20.684324   20.934047   18.802734 H          1 MOL1         0.0959
       5    C2      19.894452   19.919377   20.571871 C.3        1 MOL1        -0.1410
       6    H4      18.984503   20.534804   20.602152 H          1 MOL1         0.0948
       7    H5      20.624440   20.396199   21.239253 H          1 MOL1         0.0948
       8    C3      19.574117   18.488565   21.064944 C.3        1 MOL1        -0.1435
       9    H6      18.905795   18.002920   20.340509 H          1 MOL1         0.0948
      10    H7      20.494580   17.888920   21.084834 H          1 MOL1         0.0948
      11    C4      18.898656   18.449382   22.457735 C.3        1 MOL1        -0.1435
      12    H8      18.605265   17.412465   22.672458 H          1 MOL1         0.0948
      13    H9      17.968662   19.033932   22.431123 H          1 MOL1         0.0948
      14    C5      19.807233   18.962486   23.600789 C.3        1 MOL1        -0.1435
      15    H10     20.758004   18.414314   23.574565 H          1 MOL1         0.0948
      16    H11     20.042410   20.023456   23.444852 H          1 MOL1         0.0948
      17    C6      19.134453   18.792416   24.985082 C.3        1 MOL1        -0.1500
      18    H12     18.960735   17.726586   25.184443 H          1 MOL1         0.0948
      19    H13     18.145423   19.268399   24.953288 H          1 MOL1         0.0948
      20    C7      19.939021   19.414361   26.149246 C.3        1 MOL1         0.1162
      21    H14     20.133195   20.464418   25.909870 H          1 MOL1         0.0910
      22    C8      21.288458   18.706314   26.365867 C.3        1 MOL1        -0.2491
      23    H15     21.813398   19.131617   27.230106 H          1 MOL1         0.0959
      24    H16     21.148966   17.633256   26.546977 H          1 MOL1         0.0959
      25    H17     21.945854   18.826069   25.497022 H          1 MOL1         0.0959
      26    N1      19.139917   19.410660   27.422719 N.4        1 MOL1        -0.5987
      27    H18     18.916013   18.457407   27.720962 H          1 MOL1         0.3605
      28    H19     18.255235   19.915141   27.314356 H          1 MOL1         0.3605
      29    H20     19.653448   19.857527   28.187780 H          1 MOL1         0.3605
@<TRIPOS>BOND
    1     1     2    1
    2     1     3    1
    3     1     4    1
    4     1     5    1
    5     5     6    1
    6     5     7    1
    7     5     8    1
    8     8     9    1
    9     8    10    1
   10     8    11    1
   11    11    12    1
   12    11    13    1
   13    11    14    1
   14    14    15    1
   15    14    16    1
   16    14    17    1
   17    17    18    1
   18    17    19    1
   19    17    20    1
   20    20    21    1
   21    20    22    1
   22    22    23    1
   23    22    24    1
   24    22    25    1
   25    20    26    1
   26    26    27    1
   27    26    28    1
   28    26    29    1
@<TRIPOS>SUBSTRUCTURE
       1 MOL1            1 RESIDUE      1      MOL     
@<SCITEGIC>MOL_PROPERTY
VM2 Rank
SciTegic.value.IntegerValue
15

@<SCITEGIC>MOL_PROPERTY
Conf_Id
SciTegic.value.IntegerValue
1048

@<SCITEGIC>MOL_PROPERTY
Probability
SciTegic.value.DoubleValue
1.66

@<SCITEGIC>MOL_PROPERTY
Sum Probability
SciTegic.value.DoubleValue
54.19

@<SCITEGIC>MOL_PROPERTY
Delta G
SciTegic.value.DoubleValue
1.093

@<SCITEGIC>MOL_PROPERTY
G
SciTegic.value.DoubleValue
34.795

@<SCITEGIC>MOL_PROPERTY
E
SciTegic.value.DoubleValue
-2.706

@<SCITEGIC>MOL_PROPERTY
-TS
SciTegic.value.DoubleValue
37.502

@<SCITEGIC>MOL_PROPERTY
U+W
SciTegic.value.DoubleValue
-26.851

@<SCITEGIC>MOL_PROPERTY
U
SciTegic.value.DoubleValue
25.086

@<SCITEGIC>MOL_PROPERTY
W
SciTegic.value.DoubleValue
-51.937

@<SCITEGIC>MOL_PROPERTY
W(PB)
SciTegic.value.DoubleValue
-54.491

@<SCITEGIC>MOL_PROPERTY
W(SA)
SciTegic.value.DoubleValue
2.553

@<SCITEGIC>MOL_PROPERTY
Valence
SciTegic.value.DoubleValue
4.251

@<SCITEGIC>MOL_PROPERTY
Coulomb
SciTegic.value.DoubleValue
19.539

@<SCITEGIC>MOL_PROPERTY
VdW
SciTegic.value.DoubleValue
1.297

@<SCITEGIC>MOL_PROPERTY
VdW6
SciTegic.value.DoubleValue
-8.776

@<SCITEGIC>MOL_PROPERTY
VdW12
SciTegic.value.DoubleValue
10.073

@<SCITEGIC>MOL_PROPERTY
Bond
SciTegic.value.DoubleValue
0.238

@<SCITEGIC>MOL_PROPERTY
Angle
SciTegic.value.DoubleValue
1.421

@<SCITEGIC>MOL_PROPERTY
Pdih
SciTegic.value.DoubleValue
2.591

@<SCITEGIC>MOL_PROPERTY
Idih
SciTegic.value.DoubleValue
0.000

@<SCITEGIC>MOL_PROPERTY
Tether
SciTegic.value.DoubleValue
0.000

@<TRIPOS>MOLECULE
guest-s15_vm2.mol2 : vm2 ligand conformer 16
          29          28           1
SMALL
USER_CHARGES
 
@<TRIPOS>ATOM
       1    C1      18.574148   19.229379   19.295313 C.3        1 MOL1        -0.2426
       2    H1      18.324781   18.160303   19.283627 H          1 MOL1         0.0959
       3    H2      17.717273   19.775952   19.710353 H          1 MOL1         0.0959
       4    H3      18.710312   19.555137   18.255898 H          1 MOL1         0.0959
       5    C2      19.851827   19.491743   20.120312 C.3        1 MOL1        -0.1410
       6    H4      20.094347   20.563157   20.086334 H          1 MOL1         0.0948
       7    H5      20.697286   18.960424   19.661213 H          1 MOL1         0.0948
       8    C3      19.687109   19.041078   21.588569 C.3        1 MOL1        -0.1435
       9    H6      18.834788   19.571938   22.032446 H          1 MOL1         0.0948
      10    H7      19.446709   17.969365   21.617513 H          1 MOL1         0.0948
      11    C4      20.966287   19.307394   22.417809 C.3        1 MOL1        -0.1435
      12    H8      21.179952   20.385068   22.433775 H          1 MOL1         0.0948
      13    H9      21.821823   18.831010   21.919330 H          1 MOL1         0.0948
      14    C5      20.883791   18.772672   23.868594 C.3        1 MOL1        -0.1435
      15    H10     20.701784   17.690192   23.841276 H          1 MOL1         0.0948
      16    H11     21.862848   18.911815   24.347662 H          1 MOL1         0.0948
      17    C6      19.798738   19.476690   24.723604 C.3        1 MOL1        -0.1500
      18    H12     18.799788   19.233705   24.339836 H          1 MOL1         0.0948
      19    H13     19.919857   20.562831   24.618016 H          1 MOL1         0.0948
      20    C7      19.867778   19.119789   26.225806 C.3        1 MOL1         0.1162
      21    H14     20.879394   19.334883   26.583553 H          1 MOL1         0.0910
      22    C8      19.566471   17.632208   26.481583 C.3        1 MOL1        -0.2491
      23    H15     18.582219   17.352875   26.085433 H          1 MOL1         0.0959
      24    H16     20.320354   16.987091   26.015728 H          1 MOL1         0.0959
      25    H17     19.574251   17.415835   27.556973 H          1 MOL1         0.0959
      26    N1      18.939851   19.985046   27.032409 N.4        1 MOL1        -0.5987
      27    H18     19.150703   20.979843   26.910690 H          1 MOL1         0.3605
      28    H19     19.011677   19.778897   28.032943 H          1 MOL1         0.3605
      29    H20     17.963553   19.841734   26.760346 H          1 MOL1         0.3605
@<TRIPOS>BOND
    1     1     2    1
    2     1     3    1
    3     1     4    1
    4     1     5    1
    5     5     6    1
    6     5     7    1
    7     5     8    1
    8     8     9    1
    9     8    10    1
   10     8    11    1
   11    11    12    1
   12    11    13    1
   13    11    14    1
   14    14    15    1
   15    14    16    1
   16    14    17    1
   17    17    18    1
   18    17    19    1
   19    17    20    1
   20    20    21    1
   21    20    22    1
   22    22    23    1
   23    22    24    1
   24    22    25    1
   25    20    26    1
   26    26    27    1
   27    26    28    1
   28    26    29    1
@<TRIPOS>SUBSTRUCTURE
       1 MOL1            1 RESIDUE      1      MOL     
@<SCITEGIC>MOL_PROPERTY
VM2 Rank
SciTegic.value.IntegerValue
16

@<SCITEGIC>MOL_PROPERTY
Conf_Id
SciTegic.value.IntegerValue
39

@<SCITEGIC>MOL_PROPERTY
Probability
SciTegic.value.DoubleValue
1.60

@<SCITEGIC>MOL_PROPERTY
Sum Probability
SciTegic.value.DoubleValue
55.79

@<SCITEGIC>MOL_PROPERTY
Delta G
SciTegic.value.DoubleValue
1.115

@<SCITEGIC>MOL_PROPERTY
G
SciTegic.value.DoubleValue
34.817

@<SCITEGIC>MOL_PROPERTY
E
SciTegic.value.DoubleValue
-2.717

@<SCITEGIC>MOL_PROPERTY
-TS
SciTegic.value.DoubleValue
37.534

@<SCITEGIC>MOL_PROPERTY
U+W
SciTegic.value.DoubleValue
-26.861

@<SCITEGIC>MOL_PROPERTY
U
SciTegic.value.DoubleValue
25.129

@<SCITEGIC>MOL_PROPERTY
W
SciTegic.value.DoubleValue
-51.990

@<SCITEGIC>MOL_PROPERTY
W(PB)
SciTegic.value.DoubleValue
-54.526

@<SCITEGIC>MOL_PROPERTY
W(SA)
SciTegic.value.DoubleValue
2.536

@<SCITEGIC>MOL_PROPERTY
Valence
SciTegic.value.DoubleValue
4.206

@<SCITEGIC>MOL_PROPERTY
Coulomb
SciTegic.value.DoubleValue
19.678

@<SCITEGIC>MOL_PROPERTY
VdW
SciTegic.value.DoubleValue
1.245

@<SCITEGIC>MOL_PROPERTY
VdW6
SciTegic.value.DoubleValue
-8.834

@<SCITEGIC>MOL_PROPERTY
VdW12
SciTegic.value.DoubleValue
10.079

@<SCITEGIC>MOL_PROPERTY
Bond
SciTegic.value.DoubleValue
0.240

@<SCITEGIC>MOL_PROPERTY
Angle
SciTegic.value.DoubleValue
1.353

@<SCITEGIC>MOL_PROPERTY
Pdih
SciTegic.value.DoubleValue
2.613

@<SCITEGIC>MOL_PROPERTY
Idih
SciTegic.value.DoubleValue
0.000

@<SCITEGIC>MOL_PROPERTY
Tether
SciTegic.value.DoubleValue
0.000

@<TRIPOS>MOLECULE
guest-s15_vm2.mol2 : vm2 ligand conformer 17
          29          28           1
SMALL
USER_CHARGES
 
@<TRIPOS>ATOM
       1    C1      20.658854   19.226967   19.120817 C.3        1 MOL1        -0.2426
       2    H1      19.801800   19.199890   18.435281 H          1 MOL1         0.0959
       3    H2      21.074332   20.243082   19.109029 H          1 MOL1         0.0959
       4    H3      21.424800   18.544923   18.729432 H          1 MOL1         0.0959
       5    C2      20.241176   18.815612   20.548518 C.3        1 MOL1        -0.1410
       6    H4      21.130272   18.815085   21.192780 H          1 MOL1         0.0948
       7    H5      19.857248   17.786030   20.533188 H          1 MOL1         0.0948
       8    C3      19.164548   19.766253   21.123248 C.3        1 MOL1        -0.1435
       9    H6      19.568054   20.786064   21.189513 H          1 MOL1         0.0948
      10    H7      18.320324   19.814137   20.421599 H          1 MOL1         0.0948
      11    C4      18.626178   19.329873   22.508009 C.3        1 MOL1        -0.1435
      12    H8      18.210373   18.315242   22.437715 H          1 MOL1         0.0948
      13    H9      17.788729   19.988358   22.777037 H          1 MOL1         0.0948
      14    C5      19.690458   19.381812   23.630630 C.3        1 MOL1        -0.1435
      15    H10     20.497095   18.675080   23.401391 H          1 MOL1         0.0948
      16    H11     20.139498   20.384077   23.664080 H          1 MOL1         0.0948
      17    C6      19.080314   19.043270   25.013114 C.3        1 MOL1        -0.1500
      18    H12     18.685107   18.018756   25.002414 H          1 MOL1         0.0948
      19    H13     18.222499   19.705832   25.188717 H          1 MOL1         0.0948
      20    C7      20.071022   19.206453   26.188494 C.3        1 MOL1         0.1162
      21    H14     20.482665   20.219799   26.152331 H          1 MOL1         0.0910
      22    C8      21.236346   18.203813   26.110045 C.3        1 MOL1        -0.2491
      23    H15     20.869218   17.170444   26.077133 H          1 MOL1         0.0959
      24    H16     21.853902   18.378193   25.221477 H          1 MOL1         0.0959
      25    H17     21.891546   18.304142   26.984119 H          1 MOL1         0.0959
      26    N1      19.367103   19.081948   27.511125 N.4        1 MOL1        -0.5987
      27    H18     18.951650   18.153744   27.627775 H          1 MOL1         0.3605
      28    H19     18.614281   19.770095   27.603968 H          1 MOL1         0.3605
      29    H20     20.011792   19.228687   28.293153 H          1 MOL1         0.3605
@<TRIPOS>BOND
    1     1     2    1
    2     1     3    1
    3     1     4    1
    4     1     5    1
    5     5     6    1
    6     5     7    1
    7     5     8    1
    8     8     9    1
    9     8    10    1
   10     8    11    1
   11    11    12    1
   12    11    13    1
   13    11    14    1
   14    14    15    1
   15    14    16    1
   16    14    17    1
   17    17    18    1
   18    17    19    1
   19    17    20    1
   20    20    21    1
   21    20    22    1
   22    22    23    1
   23    22    24    1
   24    22    25    1
   25    20    26    1
   26    26    27    1
   27    26    28    1
   28    26    29    1
@<TRIPOS>SUBSTRUCTURE
       1 MOL1            1 RESIDUE      1      MOL     
@<SCITEGIC>MOL_PROPERTY
VM2 Rank
SciTegic.value.IntegerValue
17

@<SCITEGIC>MOL_PROPERTY
Conf_Id
SciTegic.value.IntegerValue
321

@<SCITEGIC>MOL_PROPERTY
Probability
SciTegic.value.DoubleValue
1.59

@<SCITEGIC>MOL_PROPERTY
Sum Probability
SciTegic.value.DoubleValue
57.38

@<SCITEGIC>MOL_PROPERTY
Delta G
SciTegic.value.DoubleValue
1.120

@<SCITEGIC>MOL_PROPERTY
G
SciTegic.value.DoubleValue
34.822

@<SCITEGIC>MOL_PROPERTY
E
SciTegic.value.DoubleValue
-2.670

@<SCITEGIC>MOL_PROPERTY
-TS
SciTegic.value.DoubleValue
37.493

@<SCITEGIC>MOL_PROPERTY
U+W
SciTegic.value.DoubleValue
-26.815

@<SCITEGIC>MOL_PROPERTY
U
SciTegic.value.DoubleValue
25.086

@<SCITEGIC>MOL_PROPERTY
W
SciTegic.value.DoubleValue
-51.900

@<SCITEGIC>MOL_PROPERTY
W(PB)
SciTegic.value.DoubleValue
-54.413

@<SCITEGIC>MOL_PROPERTY
W(SA)
SciTegic.value.DoubleValue
2.513

@<SCITEGIC>MOL_PROPERTY
Valence
SciTegic.value.DoubleValue
4.252

@<SCITEGIC>MOL_PROPERTY
Coulomb
SciTegic.value.DoubleValue
19.525

@<SCITEGIC>MOL_PROPERTY
VdW
SciTegic.value.DoubleValue
1.309

@<SCITEGIC>MOL_PROPERTY
VdW6
SciTegic.value.DoubleValue
-8.788

@<SCITEGIC>MOL_PROPERTY
VdW12
SciTegic.value.DoubleValue
10.097

@<SCITEGIC>MOL_PROPERTY
Bond
SciTegic.value.DoubleValue
0.241

@<SCITEGIC>MOL_PROPERTY
Angle
SciTegic.value.DoubleValue
1.423

@<SCITEGIC>MOL_PROPERTY
Pdih
SciTegic.value.DoubleValue
2.589

@<SCITEGIC>MOL_PROPERTY
Idih
SciTegic.value.DoubleValue
0.000

@<SCITEGIC>MOL_PROPERTY
Tether
SciTegic.value.DoubleValue
0.000

@<TRIPOS>MOLECULE
guest-s15_vm2.mol2 : vm2 ligand conformer 18
          29          28           1
SMALL
USER_CHARGES
 
@<TRIPOS>ATOM
       1    C1      20.306856   18.573606   19.517882 C.3        1 MOL1        -0.2426
       2    H1      20.247856   18.562978   18.421834 H          1 MOL1         0.0959
       3    H2      21.247122   19.067349   19.793008 H          1 MOL1         0.0959
       4    H3      20.351258   17.532168   19.862050 H          1 MOL1         0.0959
       5    C2      19.085290   19.305499   20.118301 C.3        1 MOL1        -0.1410
       6    H4      18.167857   18.847994   19.722391 H          1 MOL1         0.0948
       7    H5      19.078084   20.351139   19.780224 H          1 MOL1         0.0948
       8    C3      19.039109   19.254592   21.664368 C.3        1 MOL1        -0.1435
       9    H6      18.094906   19.704592   22.000588 H          1 MOL1         0.0948
      10    H7      19.016840   18.205660   21.987913 H          1 MOL1         0.0948
      11    C4      20.221899   19.995093   22.337951 C.3        1 MOL1        -0.1435
      12    H8      20.303123   21.004000   21.910625 H          1 MOL1         0.0948
      13    H9      21.166136   19.484098   22.107921 H          1 MOL1         0.0948
      14    C5      20.072764   20.121936   23.873762 C.3        1 MOL1        -0.1435
      15    H10     20.897908   20.740182   24.253870 H          1 MOL1         0.0948
      16    H11     19.146384   20.665506   24.102431 H          1 MOL1         0.0948
      17    C6      20.086125   18.756294   24.606887 C.3        1 MOL1        -0.1500
      18    H12     20.967021   18.186966   24.281612 H          1 MOL1         0.0948
      19    H13     19.206133   18.165497   24.322641 H          1 MOL1         0.0948
      20    C7      20.126945   18.902252   26.143217 C.3        1 MOL1         0.1162
      21    H14     21.000133   19.506778   26.407270 H          1 MOL1         0.0910
      22    C8      20.274901   17.524270   26.807694 C.3        1 MOL1        -0.2491
      23    H15     20.341783   17.624192   27.898080 H          1 MOL1         0.0959
      24    H16     19.419539   16.877491   26.575382 H          1 MOL1         0.0959
      25    H17     21.187082   17.021317   26.463139 H          1 MOL1         0.0959
      26    N1      18.922109   19.622459   26.683938 N.4        1 MOL1        -0.5987
      27    H18     18.975761   19.730166   27.700876 H          1 MOL1         0.3605
      28    H19     18.058737   19.114476   26.474164 H          1 MOL1         0.3605
      29    H20     18.835135   20.559201   26.280616 H          1 MOL1         0.3605
@<TRIPOS>BOND
    1     1     2    1
    2     1     3    1
    3     1     4    1
    4     1     5    1
    5     5     6    1
    6     5     7    1
    7     5     8    1
    8     8     9    1
    9     8    10    1
   10     8    11    1
   11    11    12    1
   12    11    13    1
   13    11    14    1
   14    14    15    1
   15    14    16    1
   16    14    17    1
   17    17    18    1
   18    17    19    1
   19    17    20    1
   20    20    21    1
   21    20    22    1
   22    22    23    1
   23    22    24    1
   24    22    25    1
   25    20    26    1
   26    26    27    1
   27    26    28    1
   28    26    29    1
@<TRIPOS>SUBSTRUCTURE
       1 MOL1            1 RESIDUE      1      MOL     
@<SCITEGIC>MOL_PROPERTY
VM2 Rank
SciTegic.value.IntegerValue
18

@<SCITEGIC>MOL_PROPERTY
Conf_Id
SciTegic.value.IntegerValue
1040

@<SCITEGIC>MOL_PROPERTY
Probability
SciTegic.value.DoubleValue
1.55

@<SCITEGIC>MOL_PROPERTY
Sum Probability
SciTegic.value.DoubleValue
58.93

@<SCITEGIC>MOL_PROPERTY
Delta G
SciTegic.value.DoubleValue
1.132

@<SCITEGIC>MOL_PROPERTY
G
SciTegic.value.DoubleValue
34.835

@<SCITEGIC>MOL_PROPERTY
E
SciTegic.value.DoubleValue
-2.801

@<SCITEGIC>MOL_PROPERTY
-TS
SciTegic.value.DoubleValue
37.636

@<SCITEGIC>MOL_PROPERTY
U+W
SciTegic.value.DoubleValue
-26.946

@<SCITEGIC>MOL_PROPERTY
U
SciTegic.value.DoubleValue
25.270

@<SCITEGIC>MOL_PROPERTY
W
SciTegic.value.DoubleValue
-52.216

@<SCITEGIC>MOL_PROPERTY
W(PB)
SciTegic.value.DoubleValue
-54.702

@<SCITEGIC>MOL_PROPERTY
W(SA)
SciTegic.value.DoubleValue
2.486

@<SCITEGIC>MOL_PROPERTY
Valence
SciTegic.value.DoubleValue
4.168

@<SCITEGIC>MOL_PROPERTY
Coulomb
SciTegic.value.DoubleValue
19.867

@<SCITEGIC>MOL_PROPERTY
VdW
SciTegic.value.DoubleValue
1.235

@<SCITEGIC>MOL_PROPERTY
VdW6
SciTegic.value.DoubleValue
-9.311

@<SCITEGIC>MOL_PROPERTY
VdW12
SciTegic.value.DoubleValue
10.546

@<SCITEGIC>MOL_PROPERTY
Bond
SciTegic.value.DoubleValue
0.263

@<SCITEGIC>MOL_PROPERTY
Angle
SciTegic.value.DoubleValue
1.298

@<SCITEGIC>MOL_PROPERTY
Pdih
SciTegic.value.DoubleValue
2.606

@<SCITEGIC>MOL_PROPERTY
Idih
SciTegic.value.DoubleValue
0.000

@<SCITEGIC>MOL_PROPERTY
Tether
SciTegic.value.DoubleValue
0.000

@<TRIPOS>MOLECULE
guest-s15_vm2.mol2 : vm2 ligand conformer 19
          29          28           1
SMALL
USER_CHARGES
 
@<TRIPOS>ATOM
       1    C1      20.912353   19.724131   19.676472 C.3        1 MOL1        -0.2426
       2    H1      21.881934   19.810991   20.184015 H          1 MOL1         0.0959
       3    H2      20.852366   18.726613   19.221937 H          1 MOL1         0.0959
       4    H3      20.887960   20.465371   18.867150 H          1 MOL1         0.0959
       5    C2      19.747551   19.955215   20.662200 C.3        1 MOL1        -0.1410
       6    H4      18.793774   19.896631   20.119305 H          1 MOL1         0.0948
       7    H5      19.815616   20.971402   21.075250 H          1 MOL1         0.0948
       8    C3      19.758294   18.923566   21.811647 C.3        1 MOL1        -0.1435
       9    H6      19.687058   17.909600   21.394540 H          1 MOL1         0.0948
      10    H7      20.719426   18.985627   22.338665 H          1 MOL1         0.0948
      11    C4      18.594370   19.157685   22.804011 C.3        1 MOL1        -0.1435
      12    H8      17.646354   19.160384   22.248479 H          1 MOL1         0.0948
      13    H9      18.685351   20.156519   23.251046 H          1 MOL1         0.0948
      14    C5      18.504366   18.081846   23.917095 C.3        1 MOL1        -0.1435
      15    H10     17.630036   18.294586   24.546753 H          1 MOL1         0.0948
      16    H11     18.304988   17.105233   23.454860 H          1 MOL1         0.0948
      17    C6      19.766381   17.960494   24.812437 C.3        1 MOL1        -0.1500
      18    H12     20.595606   17.561954   24.213969 H          1 MOL1         0.0948
      19    H13     19.577171   17.214740   25.595899 H          1 MOL1         0.0948
      20    C7      20.205758   19.288866   25.466867 C.3        1 MOL1         0.1162
      21    H14     20.392298   20.018197   24.672929 H          1 MOL1         0.0910
      22    C8      21.510744   19.092589   26.254162 C.3        1 MOL1        -0.2491
      23    H15     22.309890   18.725455   25.598180 H          1 MOL1         0.0959
      24    H16     21.847477   20.041225   26.690133 H          1 MOL1         0.0959
      25    H17     21.378142   18.369762   27.068925 H          1 MOL1         0.0959
      26    N1      19.136183   19.871608   26.349109 N.4        1 MOL1        -0.5987
      27    H18     18.271823   20.034528   25.825528 H          1 MOL1         0.3605
      28    H19     19.427772   20.767338   26.750587 H          1 MOL1         0.3605
      29    H20     18.912527   19.244709   27.126548 H          1 MOL1         0.3605
@<TRIPOS>BOND
    1     1     2    1
    2     1     3    1
    3     1     4    1
    4     1     5    1
    5     5     6    1
    6     5     7    1
    7     5     8    1
    8     8     9    1
    9     8    10    1
   10     8    11    1
   11    11    12    1
   12    11    13    1
   13    11    14    1
   14    14    15    1
   15    14    16    1
   16    14    17    1
   17    17    18    1
   18    17    19    1
   19    17    20    1
   20    20    21    1
   21    20    22    1
   22    22    23    1
   23    22    24    1
   24    22    25    1
   25    20    26    1
   26    26    27    1
   27    26    28    1
   28    26    29    1
@<TRIPOS>SUBSTRUCTURE
       1 MOL1            1 RESIDUE      1      MOL     
@<SCITEGIC>MOL_PROPERTY
VM2 Rank
SciTegic.value.IntegerValue
19

@<SCITEGIC>MOL_PROPERTY
Conf_Id
SciTegic.value.IntegerValue
585

@<SCITEGIC>MOL_PROPERTY
Probability
SciTegic.value.DoubleValue
1.55

@<SCITEGIC>MOL_PROPERTY
Sum Probability
SciTegic.value.DoubleValue
60.48

@<SCITEGIC>MOL_PROPERTY
Delta G
SciTegic.value.DoubleValue
1.134

@<SCITEGIC>MOL_PROPERTY
G
SciTegic.value.DoubleValue
34.836

@<SCITEGIC>MOL_PROPERTY
E
SciTegic.value.DoubleValue
-3.024

@<SCITEGIC>MOL_PROPERTY
-TS
SciTegic.value.DoubleValue
37.860

@<SCITEGIC>MOL_PROPERTY
U+W
SciTegic.value.DoubleValue
-27.168

@<SCITEGIC>MOL_PROPERTY
U
SciTegic.value.DoubleValue
25.092

@<SCITEGIC>MOL_PROPERTY
W
SciTegic.value.DoubleValue
-52.260

@<SCITEGIC>MOL_PROPERTY
W(PB)
SciTegic.value.DoubleValue
-54.738

@<SCITEGIC>MOL_PROPERTY
W(SA)
SciTegic.value.DoubleValue
2.478

@<SCITEGIC>MOL_PROPERTY
Valence
SciTegic.value.DoubleValue
3.930

@<SCITEGIC>MOL_PROPERTY
Coulomb
SciTegic.value.DoubleValue
20.383

@<SCITEGIC>MOL_PROPERTY
VdW
SciTegic.value.DoubleValue
0.779

@<SCITEGIC>MOL_PROPERTY
VdW6
SciTegic.value.DoubleValue
-9.977

@<SCITEGIC>MOL_PROPERTY
VdW12
SciTegic.value.DoubleValue
10.756

@<SCITEGIC>MOL_PROPERTY
Bond
SciTegic.value.DoubleValue
0.263

@<SCITEGIC>MOL_PROPERTY
Angle
SciTegic.value.DoubleValue
1.407

@<SCITEGIC>MOL_PROPERTY
Pdih
SciTegic.value.DoubleValue
2.259

@<SCITEGIC>MOL_PROPERTY
Idih
SciTegic.value.DoubleValue
0.000

@<SCITEGIC>MOL_PROPERTY
Tether
SciTegic.value.DoubleValue
0.000

@<TRIPOS>MOLECULE
guest-s15_vm2.mol2 : vm2 ligand conformer 20
          29          28           1
SMALL
USER_CHARGES
 
@<TRIPOS>ATOM
       1    C1      19.887782   20.240175   19.460687 C.3        1 MOL1        -0.2426
       2    H1      19.010112   20.884167   19.602091 H          1 MOL1         0.0959
       3    H2      20.724767   20.670110   20.024660 H          1 MOL1         0.0959
       4    H3      20.157506   20.268913   18.397037 H          1 MOL1         0.0959
       5    C2      19.589951   18.789884   19.903934 C.3        1 MOL1        -0.1410
       6    H4      20.491379   18.173369   19.781212 H          1 MOL1         0.0948
       7    H5      18.831791   18.363196   19.232454 H          1 MOL1         0.0948
       8    C3      19.078320   18.684753   21.360841 C.3        1 MOL1        -0.1435
       9    H6      18.166015   19.286615   21.473425 H          1 MOL1         0.0948
      10    H7      18.787227   17.642924   21.553544 H          1 MOL1         0.0948
      11    C4      20.124595   19.120326   22.414572 C.3        1 MOL1        -0.1435
      12    H8      20.372836   20.180993   22.277748 H          1 MOL1         0.0948
      13    H9      21.053369   18.552643   22.265267 H          1 MOL1         0.0948
      14    C5      19.611966   18.901811   23.856065 C.3        1 MOL1        -0.1435
      15    H10     18.681254   19.467199   23.996365 H          1 MOL1         0.0948
      16    H11     19.365812   17.840425   23.991085 H          1 MOL1         0.0948
      17    C6      20.662894   19.340503   24.908938 C.3        1 MOL1        -0.1500
      18    H12     20.935157   20.389189   24.731221 H          1 MOL1         0.0948
      19    H13     21.584355   18.760854   24.765110 H          1 MOL1         0.0948
      20    C7      20.209976   19.196490   26.381100 C.3        1 MOL1         0.1162
      21    H14     21.025578   19.566953   27.009846 H          1 MOL1         0.0910
      22    C8      19.954799   17.729175   26.767390 C.3        1 MOL1        -0.2491
      23    H15     19.083513   17.317439   26.244385 H          1 MOL1         0.0959
      24    H16     20.825714   17.106084   26.528974 H          1 MOL1         0.0959
      25    H17     19.769591   17.643235   27.845126 H          1 MOL1         0.0959
      26    N1      19.015718   20.052882   26.700474 N.4        1 MOL1        -0.5987
      27    H18     19.193161   21.038776   26.487779 H          1 MOL1         0.3605
      28    H19     18.767206   19.993395   27.692121 H          1 MOL1         0.3605
      29    H20     18.196486   19.763257   26.160549 H          1 MOL1         0.3605
@<TRIPOS>BOND
    1     1     2    1
    2     1     3    1
    3     1     4    1
    4     1     5    1
    5     5     6    1
    6     5     7    1
    7     5     8    1
    8     8     9    1
    9     8    10    1
   10     8    11    1
   11    11    12    1
   12    11    13    1
   13    11    14    1
   14    14    15    1
   15    14    16    1
   16    14    17    1
   17    17    18    1
   18    17    19    1
   19    17    20    1
   20    20    21    1
   21    20    22    1
   22    22    23    1
   23    22    24    1
   24    22    25    1
   25    20    26    1
   26    26    27    1
   27    26    28    1
   28    26    29    1
@<TRIPOS>SUBSTRUCTURE
       1 MOL1            1 RESIDUE      1      MOL     
@<SCITEGIC>MOL_PROPERTY
VM2 Rank
SciTegic.value.IntegerValue
20

@<SCITEGIC>MOL_PROPERTY
Conf_Id
SciTegic.value.IntegerValue
189

@<SCITEGIC>MOL_PROPERTY
Probability
SciTegic.value.DoubleValue
1.52

@<SCITEGIC>MOL_PROPERTY
Sum Probability
SciTegic.value.DoubleValue
62.00

@<SCITEGIC>MOL_PROPERTY
Delta G
SciTegic.value.DoubleValue
1.146

@<SCITEGIC>MOL_PROPERTY
G
SciTegic.value.DoubleValue
34.848

@<SCITEGIC>MOL_PROPERTY
E
SciTegic.value.DoubleValue
-2.792

@<SCITEGIC>MOL_PROPERTY
-TS
SciTegic.value.DoubleValue
37.640

@<SCITEGIC>MOL_PROPERTY
U+W
SciTegic.value.DoubleValue
-26.937

@<SCITEGIC>MOL_PROPERTY
U
SciTegic.value.DoubleValue
25.147

@<SCITEGIC>MOL_PROPERTY
W
SciTegic.value.DoubleValue
-52.084

@<SCITEGIC>MOL_PROPERTY
W(PB)
SciTegic.value.DoubleValue
-54.572

@<SCITEGIC>MOL_PROPERTY
W(SA)
SciTegic.value.DoubleValue
2.489

@<SCITEGIC>MOL_PROPERTY
Valence
SciTegic.value.DoubleValue
4.181

@<SCITEGIC>MOL_PROPERTY
Coulomb
SciTegic.value.DoubleValue
19.656

@<SCITEGIC>MOL_PROPERTY
VdW
SciTegic.value.DoubleValue
1.310

@<SCITEGIC>MOL_PROPERTY
VdW6
SciTegic.value.DoubleValue
-9.191

@<SCITEGIC>MOL_PROPERTY
VdW12
SciTegic.value.DoubleValue
10.501

@<SCITEGIC>MOL_PROPERTY
Bond
SciTegic.value.DoubleValue
0.259

@<SCITEGIC>MOL_PROPERTY
Angle
SciTegic.value.DoubleValue
1.449

@<SCITEGIC>MOL_PROPERTY
Pdih
SciTegic.value.DoubleValue
2.473

@<SCITEGIC>MOL_PROPERTY
Idih
SciTegic.value.DoubleValue
0.000

@<SCITEGIC>MOL_PROPERTY
Tether
SciTegic.value.DoubleValue
0.000

@<TRIPOS>MOLECULE
guest-s15_vm2.mol2 : vm2 ligand conformer 21
          29          28           1
SMALL
USER_CHARGES
 
@<TRIPOS>ATOM
       1    C1      19.117406   20.236540   19.240708 C.3        1 MOL1        -0.2426
       2    H1      18.162374   20.610141   19.632593 H          1 MOL1         0.0959
       3    H2      19.840324   21.062604   19.256764 H          1 MOL1         0.0959
       4    H3      18.961387   19.945452   18.193821 H          1 MOL1         0.0959
       5    C2      19.626354   19.038107   20.069383 C.3        1 MOL1        -0.1410
       6    H4      20.563489   18.665319   19.632712 H          1 MOL1         0.0948
       7    H5      18.898799   18.216673   20.007586 H          1 MOL1         0.0948
       8    C3      19.855248   19.421242   21.548251 C.3        1 MOL1        -0.1435
       9    H6      20.584867   20.240785   21.604701 H          1 MOL1         0.0948
      10    H7      18.914653   19.800880   21.967555 H          1 MOL1         0.0948
      11    C4      20.361620   18.218474   22.380543 C.3        1 MOL1        -0.1435
      12    H8      21.254528   17.801326   21.894627 H          1 MOL1         0.0948
      13    H9      19.607272   17.419575   22.375979 H          1 MOL1         0.0948
      14    C5      20.726193   18.580258   23.841727 C.3        1 MOL1        -0.1435
      15    H10     21.210621   17.704842   24.292670 H          1 MOL1         0.0948
      16    H11     21.474495   19.384821   23.845536 H          1 MOL1         0.0948
      17    C6      19.503883   18.997645   24.700509 C.3        1 MOL1        -0.1500
      18    H12     18.760955   18.189107   24.705771 H          1 MOL1         0.0948
      19    H13     19.018822   19.863896   24.234915 H          1 MOL1         0.0948
      20    C7      19.865891   19.380098   26.154206 C.3        1 MOL1         0.1162
      21    H14     20.650076   20.142814   26.123508 H          1 MOL1         0.0910
      22    C8      20.386012   18.177169   26.961832 C.3        1 MOL1        -0.2491
      23    H15     20.575921   18.464649   28.003302 H          1 MOL1         0.0959
      24    H16     19.658628   17.355816   26.963375 H          1 MOL1         0.0959
      25    H17     21.330650   17.799680   26.554197 H          1 MOL1         0.0959
      26    N1      18.693394   20.006465   26.856841 N.4        1 MOL1        -0.5987
      27    H18     18.939091   20.297191   27.807550 H          1 MOL1         0.3605
      28    H19     17.908942   19.353009   26.930452 H          1 MOL1         0.3605
      29    H20     18.356777   20.837451   26.361857 H          1 MOL1         0.3605
@<TRIPOS>BOND
    1     1     2    1
    2     1     3    1
    3     1     4    1
    4     1     5    1
    5     5     6    1
    6     5     7    1
    7     5     8    1
    8     8     9    1
    9     8    10    1
   10     8    11    1
   11    11    12    1
   12    11    13    1
   13    11    14    1
   14    14    15    1
   15    14    16    1
   16    14    17    1
   17    17    18    1
   18    17    19    1
   19    17    20    1
   20    20    21    1
   21    20    22    1
   22    22    23    1
   23    22    24    1
   24    22    25    1
   25    20    26    1
   26    26    27    1
   27    26    28    1
   28    26    29    1
@<TRIPOS>SUBSTRUCTURE
       1 MOL1            1 RESIDUE      1      MOL     
@<SCITEGIC>MOL_PROPERTY
VM2 Rank
SciTegic.value.IntegerValue
21

@<SCITEGIC>MOL_PROPERTY
Conf_Id
SciTegic.value.IntegerValue
277

@<SCITEGIC>MOL_PROPERTY
Probability
SciTegic.value.DoubleValue
1.50

@<SCITEGIC>MOL_PROPERTY
Sum Probability
SciTegic.value.DoubleValue
63.50

@<SCITEGIC>MOL_PROPERTY
Delta G
SciTegic.value.DoubleValue
1.152

@<SCITEGIC>MOL_PROPERTY
G
SciTegic.value.DoubleValue
34.854

@<SCITEGIC>MOL_PROPERTY
E
SciTegic.value.DoubleValue
-2.567

@<SCITEGIC>MOL_PROPERTY
-TS
SciTegic.value.DoubleValue
37.421

@<SCITEGIC>MOL_PROPERTY
U+W
SciTegic.value.DoubleValue
-26.712

@<SCITEGIC>MOL_PROPERTY
U
SciTegic.value.DoubleValue
25.442

@<SCITEGIC>MOL_PROPERTY
W
SciTegic.value.DoubleValue
-52.153

@<SCITEGIC>MOL_PROPERTY
W(PB)
SciTegic.value.DoubleValue
-54.675

@<SCITEGIC>MOL_PROPERTY
W(SA)
SciTegic.value.DoubleValue
2.522

@<SCITEGIC>MOL_PROPERTY
Valence
SciTegic.value.DoubleValue
4.343

@<SCITEGIC>MOL_PROPERTY
Coulomb
SciTegic.value.DoubleValue
19.740

@<SCITEGIC>MOL_PROPERTY
VdW
SciTegic.value.DoubleValue
1.360

@<SCITEGIC>MOL_PROPERTY
VdW6
SciTegic.value.DoubleValue
-8.739

@<SCITEGIC>MOL_PROPERTY
VdW12
SciTegic.value.DoubleValue
10.099

@<SCITEGIC>MOL_PROPERTY
Bond
SciTegic.value.DoubleValue
0.251

@<SCITEGIC>MOL_PROPERTY
Angle
SciTegic.value.DoubleValue
1.483

@<SCITEGIC>MOL_PROPERTY
Pdih
SciTegic.value.DoubleValue
2.608

@<SCITEGIC>MOL_PROPERTY
Idih
SciTegic.value.DoubleValue
0.000

@<SCITEGIC>MOL_PROPERTY
Tether
SciTegic.value.DoubleValue
0.000

@<TRIPOS>MOLECULE
guest-s15_vm2.mol2 : vm2 ligand conformer 22
          29          28           1
SMALL
USER_CHARGES
 
@<TRIPOS>ATOM
       1    C1      20.499117   18.969713   19.363022 C.3        1 MOL1        -0.2426
       2    H1      20.442777   17.873449   19.370701 H          1 MOL1         0.0959
       3    H2      20.632953   19.291792   18.322213 H          1 MOL1         0.0959
       4    H3      21.394814   19.272365   19.919424 H          1 MOL1         0.0959
       5    C2      19.219718   19.596029   19.962516 C.3        1 MOL1        -0.1410
       6    H4      18.370680   19.365366   19.303968 H          1 MOL1         0.0948
       7    H5      19.313398   20.690957   19.971430 H          1 MOL1         0.0948
       8    C3      18.895206   19.086875   21.387592 C.3        1 MOL1        -0.1435
       9    H6      17.919904   19.493250   21.689110 H          1 MOL1         0.0948
      10    H7      18.782728   17.994057   21.369736 H          1 MOL1         0.0948
      11    C4      19.956293   19.485462   22.441145 C.3        1 MOL1        -0.1435
      12    H8      20.103126   20.574102   22.419446 H          1 MOL1         0.0948
      13    H9      20.922101   19.027644   22.190167 H          1 MOL1         0.0948
      14    C5      19.543520   19.047814   23.864695 C.3        1 MOL1        -0.1435
      15    H10     18.579791   19.508658   24.118401 H          1 MOL1         0.0948
      16    H11     19.391230   17.960543   23.873542 H          1 MOL1         0.0948
      17    C6      20.612744   19.442750   24.916460 C.3        1 MOL1        -0.1500
      18    H12     20.790234   20.524825   24.861093 H          1 MOL1         0.0948
      19    H13     21.568146   18.966562   24.659120 H          1 MOL1         0.0948
      20    C7      20.254872   19.080688   26.377267 C.3        1 MOL1         0.1162
      21    H14     21.072134   19.439417   27.010646 H          1 MOL1         0.0910
      22    C8      20.138453   17.560608   26.584975 C.3        1 MOL1        -0.2491
      23    H15     20.020437   17.327271   27.650260 H          1 MOL1         0.0959
      24    H16     19.274969   17.143342   26.053476 H          1 MOL1         0.0959
      25    H17     21.041481   17.048334   26.230440 H          1 MOL1         0.0959
      26    N1      19.016077   19.786061   26.856328 N.4        1 MOL1        -0.5987
      27    H18     19.102823   20.802154   26.762800 H          1 MOL1         0.3605
      28    H19     18.828396   19.584176   27.842572 H          1 MOL1         0.3605
      29    H20     18.193684   19.495997   26.321472 H          1 MOL1         0.3605
@<TRIPOS>BOND
    1     1     2    1
    2     1     3    1
    3     1     4    1
    4     1     5    1
    5     5     6    1
    6     5     7    1
    7     5     8    1
    8     8     9    1
    9     8    10    1
   10     8    11    1
   11    11    12    1
   12    11    13    1
   13    11    14    1
   14    14    15    1
   15    14    16    1
   16    14    17    1
   17    17    18    1
   18    17    19    1
   19    17    20    1
   20    20    21    1
   21    20    22    1
   22    22    23    1
   23    22    24    1
   24    22    25    1
   25    20    26    1
   26    26    27    1
   27    26    28    1
   28    26    29    1
@<TRIPOS>SUBSTRUCTURE
       1 MOL1            1 RESIDUE      1      MOL     
@<SCITEGIC>MOL_PROPERTY
VM2 Rank
SciTegic.value.IntegerValue
22

@<SCITEGIC>MOL_PROPERTY
Conf_Id
SciTegic.value.IntegerValue
1376

@<SCITEGIC>MOL_PROPERTY
Probability
SciTegic.value.DoubleValue
1.47

@<SCITEGIC>MOL_PROPERTY
Sum Probability
SciTegic.value.DoubleValue
64.98

@<SCITEGIC>MOL_PROPERTY
Delta G
SciTegic.value.DoubleValue
1.164

@<SCITEGIC>MOL_PROPERTY
G
SciTegic.value.DoubleValue
34.866

@<SCITEGIC>MOL_PROPERTY
E
SciTegic.value.DoubleValue
-2.775

@<SCITEGIC>MOL_PROPERTY
-TS
SciTegic.value.DoubleValue
37.641

@<SCITEGIC>MOL_PROPERTY
U+W
SciTegic.value.DoubleValue
-26.919

@<SCITEGIC>MOL_PROPERTY
U
SciTegic.value.DoubleValue
25.121

@<SCITEGIC>MOL_PROPERTY
W
SciTegic.value.DoubleValue
-52.040

@<SCITEGIC>MOL_PROPERTY
W(PB)
SciTegic.value.DoubleValue
-54.555

@<SCITEGIC>MOL_PROPERTY
W(SA)
SciTegic.value.DoubleValue
2.515

@<SCITEGIC>MOL_PROPERTY
Valence
SciTegic.value.DoubleValue
4.180

@<SCITEGIC>MOL_PROPERTY
Coulomb
SciTegic.value.DoubleValue
19.632

@<SCITEGIC>MOL_PROPERTY
VdW
SciTegic.value.DoubleValue
1.309

@<SCITEGIC>MOL_PROPERTY
VdW6
SciTegic.value.DoubleValue
-9.192

@<SCITEGIC>MOL_PROPERTY
VdW12
SciTegic.value.DoubleValue
10.501

@<SCITEGIC>MOL_PROPERTY
Bond
SciTegic.value.DoubleValue
0.259

@<SCITEGIC>MOL_PROPERTY
Angle
SciTegic.value.DoubleValue
1.449

@<SCITEGIC>MOL_PROPERTY
Pdih
SciTegic.value.DoubleValue
2.473

@<SCITEGIC>MOL_PROPERTY
Idih
SciTegic.value.DoubleValue
0.000

@<SCITEGIC>MOL_PROPERTY
Tether
SciTegic.value.DoubleValue
0.000

@<TRIPOS>MOLECULE
guest-s15_vm2.mol2 : vm2 ligand conformer 23
          29          28           1
SMALL
USER_CHARGES
 
@<TRIPOS>ATOM
       1    C1      18.734309   19.024212   19.316822 C.3        1 MOL1        -0.2426
       2    H1      19.488019   19.313089   18.572709 H          1 MOL1         0.0959
       3    H2      18.205608   18.141076   18.935271 H          1 MOL1         0.0959
       4    H3      18.006880   19.842020   19.402166 H          1 MOL1         0.0959
       5    C2      19.388880   18.720221   20.681049 C.3        1 MOL1        -0.1410
       6    H4      20.088750   17.880259   20.570068 H          1 MOL1         0.0948
       7    H5      18.610591   18.396255   21.384529 H          1 MOL1         0.0948
       8    C3      20.136859   19.952992   21.241344 C.3        1 MOL1        -0.1435
       9    H6      20.852428   20.308796   20.487243 H          1 MOL1         0.0948
      10    H7      19.426348   20.775204   21.403644 H          1 MOL1         0.0948
      11    C4      20.909064   19.667408   22.552821 C.3        1 MOL1        -0.1435
      12    H8      21.500149   20.557835   22.807891 H          1 MOL1         0.0948
      13    H9      21.630607   18.855925   22.385038 H          1 MOL1         0.0948
      14    C5      19.991133   19.312150   23.747136 C.3        1 MOL1        -0.1435
      15    H10     19.237901   20.101440   23.869684 H          1 MOL1         0.0948
      16    H11     19.451461   18.382657   23.528848 H          1 MOL1         0.0948
      17    C6      20.802320   19.145677   25.058565 C.3        1 MOL1        -0.1500
      18    H12     21.373511   20.063833   25.248688 H          1 MOL1         0.0948
      19    H13     21.546478   18.349174   24.925931 H          1 MOL1         0.0948
      20    C7      19.954827   18.830237   26.313773 C.3        1 MOL1         0.1162
      21    H14     20.642078   18.771804   27.163504 H          1 MOL1         0.0910
      22    C8      19.237068   17.473807   26.202493 C.3        1 MOL1        -0.2491
      23    H15     19.948411   16.675088   25.958325 H          1 MOL1         0.0959
      24    H16     18.759469   17.213784   27.155116 H          1 MOL1         0.0959
      25    H17     18.458079   17.488702   25.431041 H          1 MOL1         0.0959
      26    N1      18.981539   19.929295   26.639997 N.4        1 MOL1        -0.5987
      27    H18     19.457110   20.828252   26.760120 H          1 MOL1         0.3605
      28    H19     18.473113   19.733506   27.507078 H          1 MOL1         0.3605
      29    H20     18.288330   20.043787   25.896438 H          1 MOL1         0.3605
@<TRIPOS>BOND
    1     1     2    1
    2     1     3    1
    3     1     4    1
    4     1     5    1
    5     5     6    1
    6     5     7    1
    7     5     8    1
    8     8     9    1
    9     8    10    1
   10     8    11    1
   11    11    12    1
   12    11    13    1
   13    11    14    1
   14    14    15    1
   15    14    16    1
   16    14    17    1
   17    17    18    1
   18    17    19    1
   19    17    20    1
   20    20    21    1
   21    20    22    1
   22    22    23    1
   23    22    24    1
   24    22    25    1
   25    20    26    1
   26    26    27    1
   27    26    28    1
   28    26    29    1
@<TRIPOS>SUBSTRUCTURE
       1 MOL1            1 RESIDUE      1      MOL     
@<SCITEGIC>MOL_PROPERTY
VM2 Rank
SciTegic.value.IntegerValue
23

@<SCITEGIC>MOL_PROPERTY
Conf_Id
SciTegic.value.IntegerValue
586

@<SCITEGIC>MOL_PROPERTY
Probability
SciTegic.value.DoubleValue
1.45

@<SCITEGIC>MOL_PROPERTY
Sum Probability
SciTegic.value.DoubleValue
66.43

@<SCITEGIC>MOL_PROPERTY
Delta G
SciTegic.value.DoubleValue
1.174

@<SCITEGIC>MOL_PROPERTY
G
SciTegic.value.DoubleValue
34.876

@<SCITEGIC>MOL_PROPERTY
E
SciTegic.value.DoubleValue
-2.753

@<SCITEGIC>MOL_PROPERTY
-TS
SciTegic.value.DoubleValue
37.629

@<SCITEGIC>MOL_PROPERTY
U+W
SciTegic.value.DoubleValue
-26.897

@<SCITEGIC>MOL_PROPERTY
U
SciTegic.value.DoubleValue
25.354

@<SCITEGIC>MOL_PROPERTY
W
SciTegic.value.DoubleValue
-52.251

@<SCITEGIC>MOL_PROPERTY
W(PB)
SciTegic.value.DoubleValue
-54.740

@<SCITEGIC>MOL_PROPERTY
W(SA)
SciTegic.value.DoubleValue
2.488

@<SCITEGIC>MOL_PROPERTY
Valence
SciTegic.value.DoubleValue
4.221

@<SCITEGIC>MOL_PROPERTY
Coulomb
SciTegic.value.DoubleValue
19.855

@<SCITEGIC>MOL_PROPERTY
VdW
SciTegic.value.DoubleValue
1.278

@<SCITEGIC>MOL_PROPERTY
VdW6
SciTegic.value.DoubleValue
-9.276

@<SCITEGIC>MOL_PROPERTY
VdW12
SciTegic.value.DoubleValue
10.554

@<SCITEGIC>MOL_PROPERTY
Bond
SciTegic.value.DoubleValue
0.264

@<SCITEGIC>MOL_PROPERTY
Angle
SciTegic.value.DoubleValue
1.471

@<SCITEGIC>MOL_PROPERTY
Pdih
SciTegic.value.DoubleValue
2.486

@<SCITEGIC>MOL_PROPERTY
Idih
SciTegic.value.DoubleValue
0.000

@<SCITEGIC>MOL_PROPERTY
Tether
SciTegic.value.DoubleValue
0.000

@<TRIPOS>MOLECULE
guest-s15_vm2.mol2 : vm2 ligand conformer 24
          29          28           1
SMALL
USER_CHARGES
 
@<TRIPOS>ATOM
       1    C1      19.744807   20.359230   19.249934 C.3        1 MOL1        -0.2426
       2    H1      18.785228   20.879559   19.367019 H          1 MOL1         0.0959
       3    H2      20.546735   21.051901   19.536909 H          1 MOL1         0.0959
       4    H3      19.870873   20.119861   18.186049 H          1 MOL1         0.0959
       5    C2      19.787661   19.075746   20.105966 C.3        1 MOL1        -0.1410
       6    H4      20.744646   18.560441   19.943050 H          1 MOL1         0.0948
       7    H5      18.996903   18.389147   19.772574 H          1 MOL1         0.0948
       8    C3      19.611550   19.384665   21.609198 C.3        1 MOL1        -0.1435
       9    H6      20.401187   20.078283   21.925732 H          1 MOL1         0.0948
      10    H7      18.652754   19.897429   21.767115 H          1 MOL1         0.0948
      11    C4      19.658923   18.098336   22.468573 C.3        1 MOL1        -0.1435
      12    H8      20.638684   17.613566   22.357526 H          1 MOL1         0.0948
      13    H9      18.917188   17.385157   22.083112 H          1 MOL1         0.0948
      14    C5      19.367456   18.342517   23.969745 C.3        1 MOL1        -0.1435
      15    H10     18.384167   18.820091   24.073262 H          1 MOL1         0.0948
      16    H11     19.290763   17.364177   24.461218 H          1 MOL1         0.0948
      17    C6      20.454858   19.196344   24.677890 C.3        1 MOL1        -0.1500
      18    H12     20.509152   20.186071   24.208606 H          1 MOL1         0.0948
      19    H13     21.438407   18.733150   24.524134 H          1 MOL1         0.0948
      20    C7      20.233691   19.402881   26.195102 C.3        1 MOL1         0.1162
      21    H14     21.031150   20.061903   26.552197 H          1 MOL1         0.0910
      22    C8      20.335397   18.084747   26.982454 C.3        1 MOL1        -0.2491
      23    H15     20.317905   18.281199   28.061481 H          1 MOL1         0.0959
      24    H16     19.503710   17.408347   26.752900 H          1 MOL1         0.0959
      25    H17     21.274620   17.565642   26.754522 H          1 MOL1         0.0959
      26    N1      18.941656   20.111532   26.495138 N.4        1 MOL1        -0.5987
      27    H18     18.886537   21.012392   26.011352 H          1 MOL1         0.3605
      28    H19     18.839589   20.295058   27.497406 H          1 MOL1         0.3605
      29    H20     18.136140   19.553523   26.201262 H          1 MOL1         0.3605
@<TRIPOS>BOND
    1     1     2    1
    2     1     3    1
    3     1     4    1
    4     1     5    1
    5     5     6    1
    6     5     7    1
    7     5     8    1
    8     8     9    1
    9     8    10    1
   10     8    11    1
   11    11    12    1
   12    11    13    1
   13    11    14    1
   14    14    15    1
   15    14    16    1
   16    14    17    1
   17    17    18    1
   18    17    19    1
   19    17    20    1
   20    20    21    1
   21    20    22    1
   22    22    23    1
   23    22    24    1
   24    22    25    1
   25    20    26    1
   26    26    27    1
   27    26    28    1
   28    26    29    1
@<TRIPOS>SUBSTRUCTURE
       1 MOL1            1 RESIDUE      1      MOL     
@<SCITEGIC>MOL_PROPERTY
VM2 Rank
SciTegic.value.IntegerValue
24

@<SCITEGIC>MOL_PROPERTY
Conf_Id
SciTegic.value.IntegerValue
1364

@<SCITEGIC>MOL_PROPERTY
Probability
SciTegic.value.DoubleValue
1.36

@<SCITEGIC>MOL_PROPERTY
Sum Probability
SciTegic.value.DoubleValue
67.79

@<SCITEGIC>MOL_PROPERTY
Delta G
SciTegic.value.DoubleValue
1.211

@<SCITEGIC>MOL_PROPERTY
G
SciTegic.value.DoubleValue
34.913

@<SCITEGIC>MOL_PROPERTY
E
SciTegic.value.DoubleValue
-2.677

@<SCITEGIC>MOL_PROPERTY
-TS
SciTegic.value.DoubleValue
37.591

@<SCITEGIC>MOL_PROPERTY
U+W
SciTegic.value.DoubleValue
-26.822

@<SCITEGIC>MOL_PROPERTY
U
SciTegic.value.DoubleValue
25.474

@<SCITEGIC>MOL_PROPERTY
W
SciTegic.value.DoubleValue
-52.296

@<SCITEGIC>MOL_PROPERTY
W(PB)
SciTegic.value.DoubleValue
-54.795

@<SCITEGIC>MOL_PROPERTY
W(SA)
SciTegic.value.DoubleValue
2.500

@<SCITEGIC>MOL_PROPERTY
Valence
SciTegic.value.DoubleValue
4.286

@<SCITEGIC>MOL_PROPERTY
Coulomb
SciTegic.value.DoubleValue
19.883

@<SCITEGIC>MOL_PROPERTY
VdW
SciTegic.value.DoubleValue
1.305

@<SCITEGIC>MOL_PROPERTY
VdW6
SciTegic.value.DoubleValue
-9.235

@<SCITEGIC>MOL_PROPERTY
VdW12
SciTegic.value.DoubleValue
10.540

@<SCITEGIC>MOL_PROPERTY
Bond
SciTegic.value.DoubleValue
0.276

@<SCITEGIC>MOL_PROPERTY
Angle
SciTegic.value.DoubleValue
1.498

@<SCITEGIC>MOL_PROPERTY
Pdih
SciTegic.value.DoubleValue
2.512

@<SCITEGIC>MOL_PROPERTY
Idih
SciTegic.value.DoubleValue
0.000

@<SCITEGIC>MOL_PROPERTY
Tether
SciTegic.value.DoubleValue
0.000

@<TRIPOS>MOLECULE
guest-s15_vm2.mol2 : vm2 ligand conformer 25
          29          28           1
SMALL
USER_CHARGES
 
@<TRIPOS>ATOM
       1    C1      18.641195   19.459282   19.360175 C.3        1 MOL1        -0.2426
       2    H1      19.424664   19.557068   18.597385 H          1 MOL1         0.0959
       3    H2      18.232919   18.441807   19.302698 H          1 MOL1         0.0959
       4    H3      17.835540   20.160699   19.107253 H          1 MOL1         0.0959
       5    C2      19.198024   19.754143   20.769070 C.3        1 MOL1        -0.1410
       6    H4      18.378448   19.686757   21.496592 H          1 MOL1         0.0948
       7    H5      19.572080   20.786875   20.804049 H          1 MOL1         0.0948
       8    C3      20.332902   18.774222   21.149649 C.3        1 MOL1        -0.1435
       9    H6      19.944451   17.746609   21.167757 H          1 MOL1         0.0948
      10    H7      21.102701   18.798631   20.365993 H          1 MOL1         0.0948
      11    C4      21.004684   19.099460   22.506371 C.3        1 MOL1        -0.1435
      12    H8      21.407733   20.121313   22.480925 H          1 MOL1         0.0948
      13    H9      21.867041   18.430896   22.635551 H          1 MOL1         0.0948
      14    C5      20.057721   18.940613   23.720108 C.3        1 MOL1        -0.1435
      15    H10     19.232165   19.658237   23.639207 H          1 MOL1         0.0948
      16    H11     19.615217   17.936126   23.698981 H          1 MOL1         0.0948
      17    C6      20.807912   19.161435   25.059510 C.3        1 MOL1        -0.1500
      18    H12     21.291097   20.147209   25.043480 H          1 MOL1         0.0948
      19    H13     21.620706   18.428152   25.145584 H          1 MOL1         0.0948
      20    C7      19.922864   19.071517   26.325175 C.3        1 MOL1         0.1162
      21    H14     20.567197   19.271005   27.187039 H          1 MOL1         0.0910
      22    C8      19.319041   17.668578   26.510809 C.3        1 MOL1        -0.2491
      23    H15     18.812224   17.594699   27.480799 H          1 MOL1         0.0959
      24    H16     18.584137   17.436658   25.730831 H          1 MOL1         0.0959
      25    H17     20.102091   16.900614   26.485440 H          1 MOL1         0.0959
      26    N1      18.851658   20.126751   26.353135 N.4        1 MOL1        -0.5987
      27    H18     18.316337   20.093010   27.225477 H          1 MOL1         0.3605
      28    H19     18.190486   20.004958   25.582116 H          1 MOL1         0.3605
      29    H20     19.249167   21.067208   26.274021 H          1 MOL1         0.3605
@<TRIPOS>BOND
    1     1     2    1
    2     1     3    1
    3     1     4    1
    4     1     5    1
    5     5     6    1
    6     5     7    1
    7     5     8    1
    8     8     9    1
    9     8    10    1
   10     8    11    1
   11    11    12    1
   12    11    13    1
   13    11    14    1
   14    14    15    1
   15    14    16    1
   16    14    17    1
   17    17    18    1
   18    17    19    1
   19    17    20    1
   20    20    21    1
   21    20    22    1
   22    22    23    1
   23    22    24    1
   24    22    25    1
   25    20    26    1
   26    26    27    1
   27    26    28    1
   28    26    29    1
@<TRIPOS>SUBSTRUCTURE
       1 MOL1            1 RESIDUE      1      MOL     
@<SCITEGIC>MOL_PROPERTY
VM2 Rank
SciTegic.value.IntegerValue
25

@<SCITEGIC>MOL_PROPERTY
Conf_Id
SciTegic.value.IntegerValue
1195

@<SCITEGIC>MOL_PROPERTY
Probability
SciTegic.value.DoubleValue
1.30

@<SCITEGIC>MOL_PROPERTY
Sum Probability
SciTegic.value.DoubleValue
69.09

@<SCITEGIC>MOL_PROPERTY
Delta G
SciTegic.value.DoubleValue
1.238

@<SCITEGIC>MOL_PROPERTY
G
SciTegic.value.DoubleValue
34.940

@<SCITEGIC>MOL_PROPERTY
E
SciTegic.value.DoubleValue
-2.687

@<SCITEGIC>MOL_PROPERTY
-TS
SciTegic.value.DoubleValue
37.628

@<SCITEGIC>MOL_PROPERTY
U+W
SciTegic.value.DoubleValue
-26.832

@<SCITEGIC>MOL_PROPERTY
U
SciTegic.value.DoubleValue
25.544

@<SCITEGIC>MOL_PROPERTY
W
SciTegic.value.DoubleValue
-52.376

@<SCITEGIC>MOL_PROPERTY
W(PB)
SciTegic.value.DoubleValue
-54.870

@<SCITEGIC>MOL_PROPERTY
W(SA)
SciTegic.value.DoubleValue
2.494

@<SCITEGIC>MOL_PROPERTY
Valence
SciTegic.value.DoubleValue
4.218

@<SCITEGIC>MOL_PROPERTY
Coulomb
SciTegic.value.DoubleValue
20.055

@<SCITEGIC>MOL_PROPERTY
VdW
SciTegic.value.DoubleValue
1.271

@<SCITEGIC>MOL_PROPERTY
VdW6
SciTegic.value.DoubleValue
-9.271

@<SCITEGIC>MOL_PROPERTY
VdW12
SciTegic.value.DoubleValue
10.543

@<SCITEGIC>MOL_PROPERTY
Bond
SciTegic.value.DoubleValue
0.264

@<SCITEGIC>MOL_PROPERTY
Angle
SciTegic.value.DoubleValue
1.469

@<SCITEGIC>MOL_PROPERTY
Pdih
SciTegic.value.DoubleValue
2.486

@<SCITEGIC>MOL_PROPERTY
Idih
SciTegic.value.DoubleValue
0.000

@<SCITEGIC>MOL_PROPERTY
Tether
SciTegic.value.DoubleValue
0.000

@<TRIPOS>MOLECULE
guest-s15_vm2.mol2 : vm2 ligand conformer 26
          29          28           1
SMALL
USER_CHARGES
 
@<TRIPOS>ATOM
       1    C1      20.914004   19.797282   20.085602 C.3        1 MOL1        -0.2426
       2    H1      21.538111   19.525740   20.946110 H          1 MOL1         0.0959
       3    H2      20.960013   18.979444   19.354868 H          1 MOL1         0.0959
       4    H3      21.358740   20.687566   19.622527 H          1 MOL1         0.0959
       5    C2      19.455613   20.079795   20.511389 C.3        1 MOL1        -0.1410
       6    H4      18.901120   20.460868   19.642511 H          1 MOL1         0.0948
       7    H5      19.436595   20.886325   21.256460 H          1 MOL1         0.0948
       8    C3      18.719326   18.829322   21.056044 C.3        1 MOL1        -0.1435
       9    H6      17.686305   19.107912   21.305754 H          1 MOL1         0.0948
      10    H7      18.643492   18.084314   20.252110 H          1 MOL1         0.0948
      11    C4      19.373866   18.160786   22.292486 C.3        1 MOL1        -0.1435
      12    H8      20.366820   17.774511   22.026858 H          1 MOL1         0.0948
      13    H9      18.772801   17.283619   22.569037 H          1 MOL1         0.0948
      14    C5      19.486447   19.100443   23.516669 C.3        1 MOL1        -0.1435
      15    H10     20.147999   19.944035   23.279033 H          1 MOL1         0.0948
      16    H11     18.496715   19.520137   23.739887 H          1 MOL1         0.0948
      17    C6      20.040248   18.358629   24.757281 C.3        1 MOL1        -0.1500
      18    H12     21.001916   17.897878   24.494591 H          1 MOL1         0.0948
      19    H13     19.364174   17.538250   25.032699 H          1 MOL1         0.0948
      20    C7      20.249226   19.289062   25.971514 C.3        1 MOL1         0.1162
      21    H14     20.905644   20.109657   25.665927 H          1 MOL1         0.0910
      22    C8      20.931685   18.526337   27.118133 C.3        1 MOL1        -0.2491
      23    H15     21.116233   19.191122   27.971015 H          1 MOL1         0.0959
      24    H16     20.310516   17.690615   27.464057 H          1 MOL1         0.0959
      25    H17     21.899469   18.122228   26.795882 H          1 MOL1         0.0959
      26    N1      18.965586   19.914344   26.444881 N.4        1 MOL1        -0.5987
      27    H18     19.125596   20.543174   27.237103 H          1 MOL1         0.3605
      28    H19     18.294370   19.203607   26.747959 H          1 MOL1         0.3605
      29    H20     18.521346   20.462390   25.703286 H          1 MOL1         0.3605
@<TRIPOS>BOND
    1     1     2    1
    2     1     3    1
    3     1     4    1
    4     1     5    1
    5     5     6    1
    6     5     7    1
    7     5     8    1
    8     8     9    1
    9     8    10    1
   10     8    11    1
   11    11    12    1
   12    11    13    1
   13    11    14    1
   14    14    15    1
   15    14    16    1
   16    14    17    1
   17    17    18    1
   18    17    19    1
   19    17    20    1
   20    20    21    1
   21    20    22    1
   22    22    23    1
   23    22    24    1
   24    22    25    1
   25    20    26    1
   26    26    27    1
   27    26    28    1
   28    26    29    1
@<TRIPOS>SUBSTRUCTURE
       1 MOL1            1 RESIDUE      1      MOL     
@<SCITEGIC>MOL_PROPERTY
VM2 Rank
SciTegic.value.IntegerValue
26

@<SCITEGIC>MOL_PROPERTY
Conf_Id
SciTegic.value.IntegerValue
1501

@<SCITEGIC>MOL_PROPERTY
Probability
SciTegic.value.DoubleValue
1.28

@<SCITEGIC>MOL_PROPERTY
Sum Probability
SciTegic.value.DoubleValue
70.37

@<SCITEGIC>MOL_PROPERTY
Delta G
SciTegic.value.DoubleValue
1.246

@<SCITEGIC>MOL_PROPERTY
G
SciTegic.value.DoubleValue
34.948

@<SCITEGIC>MOL_PROPERTY
E
SciTegic.value.DoubleValue
-2.870

@<SCITEGIC>MOL_PROPERTY
-TS
SciTegic.value.DoubleValue
37.818

@<SCITEGIC>MOL_PROPERTY
U+W
SciTegic.value.DoubleValue
-27.015

@<SCITEGIC>MOL_PROPERTY
U
SciTegic.value.DoubleValue
25.212

@<SCITEGIC>MOL_PROPERTY
W
SciTegic.value.DoubleValue
-52.227

@<SCITEGIC>MOL_PROPERTY
W(PB)
SciTegic.value.DoubleValue
-54.717

@<SCITEGIC>MOL_PROPERTY
W(SA)
SciTegic.value.DoubleValue
2.490

@<SCITEGIC>MOL_PROPERTY
Valence
SciTegic.value.DoubleValue
4.125

@<SCITEGIC>MOL_PROPERTY
Coulomb
SciTegic.value.DoubleValue
19.950

@<SCITEGIC>MOL_PROPERTY
VdW
SciTegic.value.DoubleValue
1.137

@<SCITEGIC>MOL_PROPERTY
VdW6
SciTegic.value.DoubleValue
-9.556

@<SCITEGIC>MOL_PROPERTY
VdW12
SciTegic.value.DoubleValue
10.692

@<SCITEGIC>MOL_PROPERTY
Bond
SciTegic.value.DoubleValue
0.266

@<SCITEGIC>MOL_PROPERTY
Angle
SciTegic.value.DoubleValue
1.520

@<SCITEGIC>MOL_PROPERTY
Pdih
SciTegic.value.DoubleValue
2.339

@<SCITEGIC>MOL_PROPERTY
Idih
SciTegic.value.DoubleValue
0.000

@<SCITEGIC>MOL_PROPERTY
Tether
SciTegic.value.DoubleValue
0.000

@<TRIPOS>MOLECULE
guest-s15_vm2.mol2 : vm2 ligand conformer 27
          29          28           1
SMALL
USER_CHARGES
 
@<TRIPOS>ATOM
       1    C1      20.843675   19.475962   19.758590 C.3        1 MOL1        -0.2426
       2    H1      21.260821   20.091491   18.951101 H          1 MOL1         0.0959
       3    H2      21.620168   19.368836   20.526088 H          1 MOL1         0.0959
       4    H3      20.627715   18.481968   19.345837 H          1 MOL1         0.0959
       5    C2      19.565597   20.129351   20.331374 C.3        1 MOL1        -0.1410
       6    H4      18.868179   20.326739   19.505299 H          1 MOL1         0.0948
       7    H5      19.813548   21.108238   20.764982 H          1 MOL1         0.0948
       8    C3      18.848562   19.255079   21.388221 C.3        1 MOL1        -0.1435
       9    H6      17.901494   19.741971   21.658881 H          1 MOL1         0.0948
      10    H7      18.582094   18.286592   20.942950 H          1 MOL1         0.0948
      11    C4      19.684790   19.028118   22.670180 C.3        1 MOL1        -0.1435
      12    H8      19.997605   20.000814   23.072008 H          1 MOL1         0.0948
      13    H9      20.600032   18.473593   22.424804 H          1 MOL1         0.0948
      14    C5      18.888758   18.242521   23.739750 C.3        1 MOL1        -0.1435
      15    H10     17.984733   18.801154   24.016547 H          1 MOL1         0.0948
      16    H11     18.538998   17.296653   23.303446 H          1 MOL1         0.0948
      17    C6      19.722015   17.920377   25.006642 C.3        1 MOL1        -0.1500
      18    H12     20.563650   17.275384   24.720979 H          1 MOL1         0.0948
      19    H13     19.106423   17.331763   25.699782 H          1 MOL1         0.0948
      20    C7      20.268794   19.165669   25.739953 C.3        1 MOL1         0.1162
      21    H14     20.895633   19.729175   25.042616 H          1 MOL1         0.0910
      22    C8      21.140263   18.743942   26.933439 C.3        1 MOL1        -0.2491
      23    H15     20.557282   18.177513   27.670466 H          1 MOL1         0.0959
      24    H16     21.976077   18.114986   26.602419 H          1 MOL1         0.0959
      25    H17     21.563456   19.623033   27.434929 H          1 MOL1         0.0959
      26    N1      19.173546   20.094981   26.185852 N.4        1 MOL1        -0.5987
      27    H18     18.543567   19.636784   26.849676 H          1 MOL1         0.3605
      28    H19     18.609539   20.411155   25.392207 H          1 MOL1         0.3605
      29    H20     19.552491   20.927527   26.646125 H          1 MOL1         0.3605
@<TRIPOS>BOND
    1     1     2    1
    2     1     3    1
    3     1     4    1
    4     1     5    1
    5     5     6    1
    6     5     7    1
    7     5     8    1
    8     8     9    1
    9     8    10    1
   10     8    11    1
   11    11    12    1
   12    11    13    1
   13    11    14    1
   14    14    15    1
   15    14    16    1
   16    14    17    1
   17    17    18    1
   18    17    19    1
   19    17    20    1
   20    20    21    1
   21    20    22    1
   22    22    23    1
   23    22    24    1
   24    22    25    1
   25    20    26    1
   26    26    27    1
   27    26    28    1
   28    26    29    1
@<TRIPOS>SUBSTRUCTURE
       1 MOL1            1 RESIDUE      1      MOL     
@<SCITEGIC>MOL_PROPERTY
VM2 Rank
SciTegic.value.IntegerValue
27

@<SCITEGIC>MOL_PROPERTY
Conf_Id
SciTegic.value.IntegerValue
1034

@<SCITEGIC>MOL_PROPERTY
Probability
SciTegic.value.DoubleValue
1.28

@<SCITEGIC>MOL_PROPERTY
Sum Probability
SciTegic.value.DoubleValue
71.65

@<SCITEGIC>MOL_PROPERTY
Delta G
SciTegic.value.DoubleValue
1.249

@<SCITEGIC>MOL_PROPERTY
G
SciTegic.value.DoubleValue
34.951

@<SCITEGIC>MOL_PROPERTY
E
SciTegic.value.DoubleValue
-2.741

@<SCITEGIC>MOL_PROPERTY
-TS
SciTegic.value.DoubleValue
37.692

@<SCITEGIC>MOL_PROPERTY
U+W
SciTegic.value.DoubleValue
-26.885

@<SCITEGIC>MOL_PROPERTY
U
SciTegic.value.DoubleValue
25.266

@<SCITEGIC>MOL_PROPERTY
W
SciTegic.value.DoubleValue
-52.151

@<SCITEGIC>MOL_PROPERTY
W(PB)
SciTegic.value.DoubleValue
-54.661

@<SCITEGIC>MOL_PROPERTY
W(SA)
SciTegic.value.DoubleValue
2.509

@<SCITEGIC>MOL_PROPERTY
Valence
SciTegic.value.DoubleValue
3.967

@<SCITEGIC>MOL_PROPERTY
Coulomb
SciTegic.value.DoubleValue
20.251

@<SCITEGIC>MOL_PROPERTY
VdW
SciTegic.value.DoubleValue
1.048

@<SCITEGIC>MOL_PROPERTY
VdW6
SciTegic.value.DoubleValue
-9.487

@<SCITEGIC>MOL_PROPERTY
VdW12
SciTegic.value.DoubleValue
10.535

@<SCITEGIC>MOL_PROPERTY
Bond
SciTegic.value.DoubleValue
0.252

@<SCITEGIC>MOL_PROPERTY
Angle
SciTegic.value.DoubleValue
1.329

@<SCITEGIC>MOL_PROPERTY
Pdih
SciTegic.value.DoubleValue
2.385

@<SCITEGIC>MOL_PROPERTY
Idih
SciTegic.value.DoubleValue
0.000

@<SCITEGIC>MOL_PROPERTY
Tether
SciTegic.value.DoubleValue
0.000

@<TRIPOS>MOLECULE
guest-s15_vm2.mol2 : vm2 ligand conformer 28
          29          28           1
SMALL
USER_CHARGES
 
@<TRIPOS>ATOM
       1    C1      18.307635   19.530330   20.294659 C.3        1 MOL1        -0.2426
       2    H1      17.871880   19.125904   21.216754 H          1 MOL1         0.0959
       3    H2      17.621317   20.297461   19.913465 H          1 MOL1         0.0959
       4    H3      18.354830   18.722607   19.552836 H          1 MOL1         0.0959
       5    C2      19.707533   20.133868   20.547745 C.3        1 MOL1        -0.1410
       6    H4      19.638682   20.924874   21.306343 H          1 MOL1         0.0948
       7    H5      20.050476   20.629079   19.628621 H          1 MOL1         0.0948
       8    C3      20.766467   19.081595   20.964854 C.3        1 MOL1        -0.1435
       9    H6      20.908884   18.374506   20.136094 H          1 MOL1         0.0948
      10    H7      21.733130   19.586406   21.098407 H          1 MOL1         0.0948
      11    C4      20.435115   18.279631   22.249912 C.3        1 MOL1        -0.1435
      12    H8      21.247070   17.560708   22.425986 H          1 MOL1         0.0948
      13    H9      19.529313   17.679049   22.093147 H          1 MOL1         0.0948
      14    C5      20.264677   19.166544   23.506400 C.3        1 MOL1        -0.1435
      15    H10     21.156633   19.795327   23.634513 H          1 MOL1         0.0948
      16    H11     19.412308   19.842331   23.363738 H          1 MOL1         0.0948
      17    C6      20.044780   18.316067   24.781039 C.3        1 MOL1        -0.1500
      18    H12     20.880300   17.611170   24.886199 H          1 MOL1         0.0948
      19    H13     19.135453   17.710310   24.670752 H          1 MOL1         0.0948
      20    C7      19.948947   19.168200   26.065056 C.3        1 MOL1         0.1162
      21    H14     20.853022   19.780471   26.138648 H          1 MOL1         0.0910
      22    C8      19.877907   18.261407   27.303994 C.3        1 MOL1        -0.2491
      23    H15     19.846358   18.860501   28.222413 H          1 MOL1         0.0959
      24    H16     18.984164   17.625344   27.279694 H          1 MOL1         0.0959
      25    H17     20.759143   17.610373   27.361706 H          1 MOL1         0.0959
      26    N1      18.782939   20.118359   26.040341 N.4        1 MOL1        -0.5987
      27    H18     17.894110   19.615854   25.969523 H          1 MOL1         0.3605
      28    H19     18.840073   20.759325   25.244412 H          1 MOL1         0.3605
      29    H20     18.746685   20.687839   26.890673 H          1 MOL1         0.3605
@<TRIPOS>BOND
    1     1     2    1
    2     1     3    1
    3     1     4    1
    4     1     5    1
    5     5     6    1
    6     5     7    1
    7     5     8    1
    8     8     9    1
    9     8    10    1
   10     8    11    1
   11    11    12    1
   12    11    13    1
   13    11    14    1
   14    14    15    1
   15    14    16    1
   16    14    17    1
   17    17    18    1
   18    17    19    1
   19    17    20    1
   20    20    21    1
   21    20    22    1
   22    22    23    1
   23    22    24    1
   24    22    25    1
   25    20    26    1
   26    26    27    1
   27    26    28    1
   28    26    29    1
@<TRIPOS>SUBSTRUCTURE
       1 MOL1            1 RESIDUE      1      MOL     
@<SCITEGIC>MOL_PROPERTY
VM2 Rank
SciTegic.value.IntegerValue
28

@<SCITEGIC>MOL_PROPERTY
Conf_Id
SciTegic.value.IntegerValue
1033

@<SCITEGIC>MOL_PROPERTY
Probability
SciTegic.value.DoubleValue
1.25

@<SCITEGIC>MOL_PROPERTY
Sum Probability
SciTegic.value.DoubleValue
72.90

@<SCITEGIC>MOL_PROPERTY
Delta G
SciTegic.value.DoubleValue
1.262

@<SCITEGIC>MOL_PROPERTY
G
SciTegic.value.DoubleValue
34.964

@<SCITEGIC>MOL_PROPERTY
E
SciTegic.value.DoubleValue
-2.857

@<SCITEGIC>MOL_PROPERTY
-TS
SciTegic.value.DoubleValue
37.821

@<SCITEGIC>MOL_PROPERTY
U+W
SciTegic.value.DoubleValue
-27.001

@<SCITEGIC>MOL_PROPERTY
U
SciTegic.value.DoubleValue
25.448

@<SCITEGIC>MOL_PROPERTY
W
SciTegic.value.DoubleValue
-52.449

@<SCITEGIC>MOL_PROPERTY
W(PB)
SciTegic.value.DoubleValue
-54.940

@<SCITEGIC>MOL_PROPERTY
W(SA)
SciTegic.value.DoubleValue
2.491

@<SCITEGIC>MOL_PROPERTY
Valence
SciTegic.value.DoubleValue
4.118

@<SCITEGIC>MOL_PROPERTY
Coulomb
SciTegic.value.DoubleValue
20.194

@<SCITEGIC>MOL_PROPERTY
VdW
SciTegic.value.DoubleValue
1.135

@<SCITEGIC>MOL_PROPERTY
VdW6
SciTegic.value.DoubleValue
-9.587

@<SCITEGIC>MOL_PROPERTY
VdW12
SciTegic.value.DoubleValue
10.722

@<SCITEGIC>MOL_PROPERTY
Bond
SciTegic.value.DoubleValue
0.268

@<SCITEGIC>MOL_PROPERTY
Angle
SciTegic.value.DoubleValue
1.523

@<SCITEGIC>MOL_PROPERTY
Pdih
SciTegic.value.DoubleValue
2.327

@<SCITEGIC>MOL_PROPERTY
Idih
SciTegic.value.DoubleValue
0.000

@<SCITEGIC>MOL_PROPERTY
Tether
SciTegic.value.DoubleValue
0.000

@<TRIPOS>MOLECULE
guest-s15_vm2.mol2 : vm2 ligand conformer 29
          29          28           1
SMALL
USER_CHARGES
 
@<TRIPOS>ATOM
       1    C1      19.601342   19.838861   19.261967 C.3        1 MOL1        -0.2426
       2    H1      18.740330   20.508084   19.387724 H          1 MOL1         0.0959
       3    H2      20.512499   20.401468   19.499591 H          1 MOL1         0.0959
       4    H3      19.655477   19.557275   18.202387 H          1 MOL1         0.0959
       5    C2      19.461543   18.580667   20.148714 C.3        1 MOL1        -0.1410
       6    H4      20.350196   17.944758   20.031953 H          1 MOL1         0.0948
       7    H5      18.609845   17.987767   19.786975 H          1 MOL1         0.0948
       8    C3      19.240339   18.901694   21.646748 C.3        1 MOL1        -0.1435
       9    H6      18.349976   19.535602   21.758107 H          1 MOL1         0.0948
      10    H7      19.017861   17.960342   22.165186 H          1 MOL1         0.0948
      11    C4      20.458280   19.587153   22.316785 C.3        1 MOL1        -0.1435
      12    H8      20.681910   20.526065   21.794229 H          1 MOL1         0.0948
      13    H9      21.348214   18.952448   22.206531 H          1 MOL1         0.0948
      14    C5      20.236186   19.914888   23.813890 C.3        1 MOL1        -0.1435
      15    H10     21.091531   20.505975   24.169726 H          1 MOL1         0.0948
      16    H11     19.351359   20.557449   23.914826 H          1 MOL1         0.0948
      17    C6      20.088978   18.657047   24.707961 C.3        1 MOL1        -0.1500
      18    H12     20.927431   17.977205   24.506230 H          1 MOL1         0.0948
      19    H13     19.171941   18.112805   24.449798 H          1 MOL1         0.0948
      20    C7      20.072409   18.993467   26.214590 C.3        1 MOL1         0.1162
      21    H14     20.984971   19.548854   26.452095 H          1 MOL1         0.0910
      22    C8      20.060704   17.703878   27.050708 C.3        1 MOL1        -0.2491
      23    H15     20.086358   17.935885   28.122582 H          1 MOL1         0.0959
      24    H16     19.160443   17.109257   26.850982 H          1 MOL1         0.0959
      25    H17     20.936990   17.084020   26.823431 H          1 MOL1         0.0959
      26    N1      18.916218   19.878345   26.592635 N.4        1 MOL1        -0.5987
      27    H18     18.932819   20.110000   27.589984 H          1 MOL1         0.3605
      28    H19     18.019899   19.424334   26.397815 H          1 MOL1         0.3605
      29    H20     18.935392   20.759872   26.072761 H          1 MOL1         0.3605
@<TRIPOS>BOND
    1     1     2    1
    2     1     3    1
    3     1     4    1
    4     1     5    1
    5     5     6    1
    6     5     7    1
    7     5     8    1
    8     8     9    1
    9     8    10    1
   10     8    11    1
   11    11    12    1
   12    11    13    1
   13    11    14    1
   14    14    15    1
   15    14    16    1
   16    14    17    1
   17    17    18    1
   18    17    19    1
   19    17    20    1
   20    20    21    1
   21    20    22    1
   22    22    23    1
   23    22    24    1
   24    22    25    1
   25    20    26    1
   26    26    27    1
   27    26    28    1
   28    26    29    1
@<TRIPOS>SUBSTRUCTURE
       1 MOL1            1 RESIDUE      1      MOL     
@<SCITEGIC>MOL_PROPERTY
VM2 Rank
SciTegic.value.IntegerValue
29

@<SCITEGIC>MOL_PROPERTY
Conf_Id
SciTegic.value.IntegerValue
500

@<SCITEGIC>MOL_PROPERTY
Probability
SciTegic.value.DoubleValue
1.24

@<SCITEGIC>MOL_PROPERTY
Sum Probability
SciTegic.value.DoubleValue
74.14

@<SCITEGIC>MOL_PROPERTY
Delta G
SciTegic.value.DoubleValue
1.268

@<SCITEGIC>MOL_PROPERTY
G
SciTegic.value.DoubleValue
34.971

@<SCITEGIC>MOL_PROPERTY
E
SciTegic.value.DoubleValue
-2.590

@<SCITEGIC>MOL_PROPERTY
-TS
SciTegic.value.DoubleValue
37.561

@<SCITEGIC>MOL_PROPERTY
U+W
SciTegic.value.DoubleValue
-26.735

@<SCITEGIC>MOL_PROPERTY
U
SciTegic.value.DoubleValue
25.449

@<SCITEGIC>MOL_PROPERTY
W
SciTegic.value.DoubleValue
-52.184

@<SCITEGIC>MOL_PROPERTY
W(PB)
SciTegic.value.DoubleValue
-54.671

@<SCITEGIC>MOL_PROPERTY
W(SA)
SciTegic.value.DoubleValue
2.488

@<SCITEGIC>MOL_PROPERTY
Valence
SciTegic.value.DoubleValue
4.270

@<SCITEGIC>MOL_PROPERTY
Coulomb
SciTegic.value.DoubleValue
19.867

@<SCITEGIC>MOL_PROPERTY
VdW
SciTegic.value.DoubleValue
1.312

@<SCITEGIC>MOL_PROPERTY
VdW6
SciTegic.value.DoubleValue
-9.219

@<SCITEGIC>MOL_PROPERTY
VdW12
SciTegic.value.DoubleValue
10.531

@<SCITEGIC>MOL_PROPERTY
Bond
SciTegic.value.DoubleValue
0.272

@<SCITEGIC>MOL_PROPERTY
Angle
SciTegic.value.DoubleValue
1.393

@<SCITEGIC>MOL_PROPERTY
Pdih
SciTegic.value.DoubleValue
2.605

@<SCITEGIC>MOL_PROPERTY
Idih
SciTegic.value.DoubleValue
0.000

@<SCITEGIC>MOL_PROPERTY
Tether
SciTegic.value.DoubleValue
0.000

@<TRIPOS>MOLECULE
guest-s15_vm2.mol2 : vm2 ligand conformer 30
          29          28           1
SMALL
USER_CHARGES
 
@<TRIPOS>ATOM
       1    C1      18.991447   18.554248   19.572452 C.3        1 MOL1        -0.2426
       2    H1      19.019528   17.510804   19.912233 H          1 MOL1         0.0959
       3    H2      18.078150   19.019180   19.964020 H          1 MOL1         0.0959
       4    H3      18.916060   18.549060   18.477368 H          1 MOL1         0.0959
       5    C2      20.255739   19.319746   20.024070 C.3        1 MOL1        -0.1410
       6    H4      20.191669   20.366103   19.694304 H          1 MOL1         0.0948
       7    H5      21.130737   18.890402   19.516344 H          1 MOL1         0.0948
       8    C3      20.491564   19.265770   21.552661 C.3        1 MOL1        -0.1435
       9    H6      20.584768   18.216879   21.862921 H          1 MOL1         0.0948
      10    H7      21.455699   19.743660   21.774322 H          1 MOL1         0.0948
      11    C4      19.377487   19.967776   22.369725 C.3        1 MOL1        -0.1435
      12    H8      18.429852   19.424228   22.259155 H          1 MOL1         0.0948
      13    H9      19.209504   20.971151   21.954815 H          1 MOL1         0.0948
      14    C5      19.710148   20.109793   23.875446 C.3        1 MOL1        -0.1435
      15    H10     20.650971   20.665168   23.993113 H          1 MOL1         0.0948
      16    H11     18.927960   20.725036   24.339060 H          1 MOL1         0.0948
      17    C6      19.809168   18.751432   24.616365 C.3        1 MOL1        -0.1500
      18    H12     20.606430   18.148983   24.163763 H          1 MOL1         0.0948
      19    H13     18.875850   18.187862   24.485671 H          1 MOL1         0.0948
      20    C7      20.114246   18.907985   26.122057 C.3        1 MOL1         0.1162
      21    H14     21.027459   19.501836   26.227078 H          1 MOL1         0.0910
      22    C8      20.356654   17.532484   26.763808 C.3        1 MOL1        -0.2491
      23    H15     20.608496   17.638596   27.826223 H          1 MOL1         0.0959
      24    H16     19.466731   16.895441   26.685268 H          1 MOL1         0.0959
      25    H17     21.191370   17.015285   26.274409 H          1 MOL1         0.0959
      26    N1      19.029547   19.646766   26.857416 N.4        1 MOL1        -0.5987
      27    H18     18.136151   19.150617   26.800875 H          1 MOL1         0.3605
      28    H19     18.887319   20.583918   26.471287 H          1 MOL1         0.3605
      29    H20     19.257834   19.755791   27.849703 H          1 MOL1         0.3605
@<TRIPOS>BOND
    1     1     2    1
    2     1     3    1
    3     1     4    1
    4     1     5    1
    5     5     6    1
    6     5     7    1
    7     5     8    1
    8     8     9    1
    9     8    10    1
   10     8    11    1
   11    11    12    1
   12    11    13    1
   13    11    14    1
   14    14    15    1
   15    14    16    1
   16    14    17    1
   17    17    18    1
   18    17    19    1
   19    17    20    1
   20    20    21    1
   21    20    22    1
   22    22    23    1
   23    22    24    1
   24    22    25    1
   25    20    26    1
   26    26    27    1
   27    26    28    1
   28    26    29    1
@<TRIPOS>SUBSTRUCTURE
       1 MOL1            1 RESIDUE      1      MOL     
@<SCITEGIC>MOL_PROPERTY
VM2 Rank
SciTegic.value.IntegerValue
30

@<SCITEGIC>MOL_PROPERTY
Conf_Id
SciTegic.value.IntegerValue
305

@<SCITEGIC>MOL_PROPERTY
Probability
SciTegic.value.DoubleValue
1.19

@<SCITEGIC>MOL_PROPERTY
Sum Probability
SciTegic.value.DoubleValue
75.33

@<SCITEGIC>MOL_PROPERTY
Delta G
SciTegic.value.DoubleValue
1.292

@<SCITEGIC>MOL_PROPERTY
G
SciTegic.value.DoubleValue
34.995

@<SCITEGIC>MOL_PROPERTY
E
SciTegic.value.DoubleValue
-2.604

@<SCITEGIC>MOL_PROPERTY
-TS
SciTegic.value.DoubleValue
37.599

@<SCITEGIC>MOL_PROPERTY
U+W
SciTegic.value.DoubleValue
-26.749

@<SCITEGIC>MOL_PROPERTY
U
SciTegic.value.DoubleValue
25.263

@<SCITEGIC>MOL_PROPERTY
W
SciTegic.value.DoubleValue
-52.011

@<SCITEGIC>MOL_PROPERTY
W(PB)
SciTegic.value.DoubleValue
-54.533

@<SCITEGIC>MOL_PROPERTY
W(SA)
SciTegic.value.DoubleValue
2.521

@<SCITEGIC>MOL_PROPERTY
Valence
SciTegic.value.DoubleValue
4.207

@<SCITEGIC>MOL_PROPERTY
Coulomb
SciTegic.value.DoubleValue
19.737

@<SCITEGIC>MOL_PROPERTY
VdW
SciTegic.value.DoubleValue
1.319

@<SCITEGIC>MOL_PROPERTY
VdW6
SciTegic.value.DoubleValue
-9.273

@<SCITEGIC>MOL_PROPERTY
VdW12
SciTegic.value.DoubleValue
10.592

@<SCITEGIC>MOL_PROPERTY
Bond
SciTegic.value.DoubleValue
0.271

@<SCITEGIC>MOL_PROPERTY
Angle
SciTegic.value.DoubleValue
1.357

@<SCITEGIC>MOL_PROPERTY
Pdih
SciTegic.value.DoubleValue
2.579

@<SCITEGIC>MOL_PROPERTY
Idih
SciTegic.value.DoubleValue
0.000

@<SCITEGIC>MOL_PROPERTY
Tether
SciTegic.value.DoubleValue
0.000

@<TRIPOS>MOLECULE
guest-s15_vm2.mol2 : vm2 ligand conformer 31
          29          28           1
SMALL
USER_CHARGES
 
@<TRIPOS>ATOM
       1    C1      20.387049   20.730754   20.274150 C.3        1 MOL1        -0.2426
       2    H1      19.551234   21.422402   20.441637 H          1 MOL1         0.0959
       3    H2      21.084891   20.823561   21.115467 H          1 MOL1         0.0959
       4    H3      20.916427   21.056757   19.369491 H          1 MOL1         0.0959
       5    C2      19.882881   19.278821   20.111624 C.3        1 MOL1        -0.1410
       6    H4      20.739085   18.602959   19.978027 H          1 MOL1         0.0948
       7    H5      19.290825   19.211226   19.188230 H          1 MOL1         0.0948
       8    C3      19.012405   18.793225   21.295657 C.3        1 MOL1        -0.1435
       9    H6      18.147528   19.460657   21.412746 H          1 MOL1         0.0948
      10    H7      18.607057   17.802804   21.046581 H          1 MOL1         0.0948
      11    C4      19.786128   18.701410   22.632528 C.3        1 MOL1        -0.1435
      12    H8      20.142026   19.698805   22.918635 H          1 MOL1         0.0948
      13    H9      20.675335   18.070265   22.497998 H          1 MOL1         0.0948
      14    C5      18.905516   18.118207   23.763610 C.3        1 MOL1        -0.1435
      15    H10     18.024189   18.755641   23.914967 H          1 MOL1         0.0948
      16    H11     18.520396   17.138043   23.450145 H          1 MOL1         0.0948
      17    C6      19.668196   17.939997   25.101460 C.3        1 MOL1        -0.1500
      18    H12     20.483996   17.220725   24.949547 H          1 MOL1         0.0948
      19    H13     18.993692   17.486743   25.840021 H          1 MOL1         0.0948
      20    C7      20.252465   19.248817   25.678757 C.3        1 MOL1         0.1162
      21    H14     20.938662   19.675251   24.941195 H          1 MOL1         0.0910
      22    C8      21.048129   18.959400   26.961277 C.3        1 MOL1        -0.2491
      23    H15     21.498517   19.879101   27.354575 H          1 MOL1         0.0959
      24    H16     20.403948   18.533707   27.740849 H          1 MOL1         0.0959
      25    H17     21.860524   18.248974   26.763654 H          1 MOL1         0.0959
      26    N1      19.193230   20.285369   25.934940 N.4        1 MOL1        -0.5987
      27    H18     18.681733   20.512548   25.077782 H          1 MOL1         0.3605
      28    H19     19.598565   21.155255   26.292142 H          1 MOL1         0.3605
      29    H20     18.511225   19.958338   26.624441 H          1 MOL1         0.3605
@<TRIPOS>BOND
    1     1     2    1
    2     1     3    1
    3     1     4    1
    4     1     5    1
    5     5     6    1
    6     5     7    1
    7     5     8    1
    8     8     9    1
    9     8    10    1
   10     8    11    1
   11    11    12    1
   12    11    13    1
   13    11    14    1
   14    14    15    1
   15    14    16    1
   16    14    17    1
   17    17    18    1
   18    17    19    1
   19    17    20    1
   20    20    21    1
   21    20    22    1
   22    22    23    1
   23    22    24    1
   24    22    25    1
   25    20    26    1
   26    26    27    1
   27    26    28    1
   28    26    29    1
@<TRIPOS>SUBSTRUCTURE
       1 MOL1            1 RESIDUE      1      MOL     
@<SCITEGIC>MOL_PROPERTY
VM2 Rank
SciTegic.value.IntegerValue
31

@<SCITEGIC>MOL_PROPERTY
Conf_Id
SciTegic.value.IntegerValue
1439

@<SCITEGIC>MOL_PROPERTY
Probability
SciTegic.value.DoubleValue
1.17

@<SCITEGIC>MOL_PROPERTY
Sum Probability
SciTegic.value.DoubleValue
76.50

@<SCITEGIC>MOL_PROPERTY
Delta G
SciTegic.value.DoubleValue
1.300

@<SCITEGIC>MOL_PROPERTY
G
SciTegic.value.DoubleValue
35.002

@<SCITEGIC>MOL_PROPERTY
E
SciTegic.value.DoubleValue
-2.687

@<SCITEGIC>MOL_PROPERTY
-TS
SciTegic.value.DoubleValue
37.689

@<SCITEGIC>MOL_PROPERTY
U+W
SciTegic.value.DoubleValue
-26.831

@<SCITEGIC>MOL_PROPERTY
U
SciTegic.value.DoubleValue
25.376

@<SCITEGIC>MOL_PROPERTY
W
SciTegic.value.DoubleValue
-52.207

@<SCITEGIC>MOL_PROPERTY
W(PB)
SciTegic.value.DoubleValue
-54.719

@<SCITEGIC>MOL_PROPERTY
W(SA)
SciTegic.value.DoubleValue
2.512

@<SCITEGIC>MOL_PROPERTY
Valence
SciTegic.value.DoubleValue
3.961

@<SCITEGIC>MOL_PROPERTY
Coulomb
SciTegic.value.DoubleValue
20.374

@<SCITEGIC>MOL_PROPERTY
VdW
SciTegic.value.DoubleValue
1.041

@<SCITEGIC>MOL_PROPERTY
VdW6
SciTegic.value.DoubleValue
-9.517

@<SCITEGIC>MOL_PROPERTY
VdW12
SciTegic.value.DoubleValue
10.558

@<SCITEGIC>MOL_PROPERTY
Bond
SciTegic.value.DoubleValue
0.254

@<SCITEGIC>MOL_PROPERTY
Angle
SciTegic.value.DoubleValue
1.329

@<SCITEGIC>MOL_PROPERTY
Pdih
SciTegic.value.DoubleValue
2.378

@<SCITEGIC>MOL_PROPERTY
Idih
SciTegic.value.DoubleValue
0.000

@<SCITEGIC>MOL_PROPERTY
Tether
SciTegic.value.DoubleValue
0.000

@<TRIPOS>MOLECULE
guest-s15_vm2.mol2 : vm2 ligand conformer 32
          29          28           1
SMALL
USER_CHARGES
 
@<TRIPOS>ATOM
       1    C1      21.067865   19.352231   19.750796 C.3        1 MOL1        -0.2426
       2    H1      21.727056   18.530241   20.059033 H          1 MOL1         0.0959
       3    H2      20.489964   19.018786   18.878983 H          1 MOL1         0.0959
       4    H3      21.700737   20.191495   19.434378 H          1 MOL1         0.0959
       5    C2      20.135839   19.777651   20.904958 C.3        1 MOL1        -0.1410
       6    H4      19.510075   20.619501   20.577357 H          1 MOL1         0.0948
       7    H5      20.747815   20.141200   21.741129 H          1 MOL1         0.0948
       8    C3      19.236193   18.609122   21.371390 C.3        1 MOL1        -0.1435
       9    H6      18.690724   18.211599   20.504420 H          1 MOL1         0.0948
      10    H7      19.859822   17.782894   21.737144 H          1 MOL1         0.0948
      11    C4      18.201133   19.014212   22.452837 C.3        1 MOL1        -0.1435
      12    H8      17.593763   18.134358   22.706062 H          1 MOL1         0.0948
      13    H9      17.504031   19.744622   22.019530 H          1 MOL1         0.0948
      14    C5      18.793633   19.607841   23.757369 C.3        1 MOL1        -0.1435
      15    H10     19.305216   20.554788   23.539761 H          1 MOL1         0.0948
      16    H11     17.956814   19.862653   24.420665 H          1 MOL1         0.0948
      17    C6      19.762653   18.645886   24.491584 C.3        1 MOL1        -0.1500
      18    H12     20.610372   18.415798   23.834219 H          1 MOL1         0.0948
      19    H13     19.256060   17.693819   24.698036 H          1 MOL1         0.0948
      20    C7      20.315306   19.236553   25.806865 C.3        1 MOL1         0.1162
      21    H14     20.780944   20.200802   25.580947 H          1 MOL1         0.0910
      22    C8      21.388639   18.309419   26.399218 C.3        1 MOL1        -0.2491
      23    H15     21.810621   18.739755   27.315813 H          1 MOL1         0.0959
      24    H16     20.971178   17.324752   26.644390 H          1 MOL1         0.0959
      25    H17     22.213114   18.164063   25.690076 H          1 MOL1         0.0959
      26    N1      19.234739   19.503084   26.818983 N.4        1 MOL1        -0.5987
      27    H18     19.617942   19.910402   27.676808 H          1 MOL1         0.3605
      28    H19     18.747393   18.641615   27.079525 H          1 MOL1         0.3605
      29    H20     18.535012   20.155924   26.456032 H          1 MOL1         0.3605
@<TRIPOS>BOND
    1     1     2    1
    2     1     3    1
    3     1     4    1
    4     1     5    1
    5     5     6    1
    6     5     7    1
    7     5     8    1
    8     8     9    1
    9     8    10    1
   10     8    11    1
   11    11    12    1
   12    11    13    1
   13    11    14    1
   14    14    15    1
   15    14    16    1
   16    14    17    1
   17    17    18    1
   18    17    19    1
   19    17    20    1
   20    20    21    1
   21    20    22    1
   22    22    23    1
   23    22    24    1
   24    22    25    1
   25    20    26    1
   26    26    27    1
   27    26    28    1
   28    26    29    1
@<TRIPOS>SUBSTRUCTURE
       1 MOL1            1 RESIDUE      1      MOL     
@<SCITEGIC>MOL_PROPERTY
VM2 Rank
SciTegic.value.IntegerValue
32

@<SCITEGIC>MOL_PROPERTY
Conf_Id
SciTegic.value.IntegerValue
1580

@<SCITEGIC>MOL_PROPERTY
Probability
SciTegic.value.DoubleValue
1.16

@<SCITEGIC>MOL_PROPERTY
Sum Probability
SciTegic.value.DoubleValue
77.66

@<SCITEGIC>MOL_PROPERTY
Delta G
SciTegic.value.DoubleValue
1.308

@<SCITEGIC>MOL_PROPERTY
G
SciTegic.value.DoubleValue
35.010

@<SCITEGIC>MOL_PROPERTY
E
SciTegic.value.DoubleValue
-2.817

@<SCITEGIC>MOL_PROPERTY
-TS
SciTegic.value.DoubleValue
37.827

@<SCITEGIC>MOL_PROPERTY
U+W
SciTegic.value.DoubleValue
-26.962

@<SCITEGIC>MOL_PROPERTY
U
SciTegic.value.DoubleValue
25.305

@<SCITEGIC>MOL_PROPERTY
W
SciTegic.value.DoubleValue
-52.267

@<SCITEGIC>MOL_PROPERTY
W(PB)
SciTegic.value.DoubleValue
-54.759

@<SCITEGIC>MOL_PROPERTY
W(SA)
SciTegic.value.DoubleValue
2.492

@<SCITEGIC>MOL_PROPERTY
Valence
SciTegic.value.DoubleValue
4.184

@<SCITEGIC>MOL_PROPERTY
Coulomb
SciTegic.value.DoubleValue
19.997

@<SCITEGIC>MOL_PROPERTY
VdW
SciTegic.value.DoubleValue
1.124

@<SCITEGIC>MOL_PROPERTY
VdW6
SciTegic.value.DoubleValue
-9.687

@<SCITEGIC>MOL_PROPERTY
VdW12
SciTegic.value.DoubleValue
10.811

@<SCITEGIC>MOL_PROPERTY
Bond
SciTegic.value.DoubleValue
0.280

@<SCITEGIC>MOL_PROPERTY
Angle
SciTegic.value.DoubleValue
1.609

@<SCITEGIC>MOL_PROPERTY
Pdih
SciTegic.value.DoubleValue
2.295

@<SCITEGIC>MOL_PROPERTY
Idih
SciTegic.value.DoubleValue
0.000

@<SCITEGIC>MOL_PROPERTY
Tether
SciTegic.value.DoubleValue
0.000

@<TRIPOS>MOLECULE
guest-s15_vm2.mol2 : vm2 ligand conformer 33
          29          28           1
SMALL
USER_CHARGES
 
@<TRIPOS>ATOM
       1    C1      19.554745   19.812052   19.226725 C.3        1 MOL1        -0.2426
       2    H1      20.307605   20.610557   19.251465 H          1 MOL1         0.0959
       3    H2      19.423814   19.506738   18.180506 H          1 MOL1         0.0959
       4    H3      18.599622   20.228400   19.569604 H          1 MOL1         0.0959
       5    C2      19.993628   18.607401   20.089965 C.3        1 MOL1        -0.1410
       6    H4      20.880553   18.149473   19.630126 H          1 MOL1         0.0948
       7    H5      19.209325   17.837697   20.077757 H          1 MOL1         0.0948
       8    C3      20.333861   18.985504   21.551998 C.3        1 MOL1        -0.1435
       9    H6      20.763769   18.100562   22.037799 H          1 MOL1         0.0948
      10    H7      21.117898   19.755077   21.558314 H          1 MOL1         0.0948
      11    C4      19.108199   19.479880   22.362047 C.3        1 MOL1        -0.1435
      12    H8      18.326234   18.708171   22.360997 H          1 MOL1         0.0948
      13    H9      18.675577   20.358207   21.866097 H          1 MOL1         0.0948
      14    C5      19.445486   19.875595   23.821032 C.3        1 MOL1        -0.1435
      15    H10     20.241191   20.633425   23.821519 H          1 MOL1         0.0948
      16    H11     18.559194   20.358294   24.253176 H          1 MOL1         0.0948
      17    C6      19.864279   18.675915   24.709852 C.3        1 MOL1        -0.1500
      18    H12     20.766220   18.211560   24.293058 H          1 MOL1         0.0948
      19    H13     19.078703   17.908874   24.693281 H          1 MOL1         0.0948
      20    C7      20.160180   19.083334   26.169792 C.3        1 MOL1         0.1162
      21    H14     20.917511   19.873253   26.158691 H          1 MOL1         0.0910
      22    C8      20.722074   17.887230   26.954827 C.3        1 MOL1        -0.2491
      23    H15     20.967255   18.178593   27.983617 H          1 MOL1         0.0959
      24    H16     19.997906   17.063915   26.995931 H          1 MOL1         0.0959
      25    H17     21.640958   17.511083   26.488005 H          1 MOL1         0.0959
      26    N1      18.953549   19.649089   26.867760 N.4        1 MOL1        -0.5987
      27    H18     18.194536   18.964076   26.914527 H          1 MOL1         0.3605
      28    H19     18.594114   20.475632   26.382780 H          1 MOL1         0.3605
      29    H20     19.173896   19.929041   27.827820 H          1 MOL1         0.3605
@<TRIPOS>BOND
    1     1     2    1
    2     1     3    1
    3     1     4    1
    4     1     5    1
    5     5     6    1
    6     5     7    1
    7     5     8    1
    8     8     9    1
    9     8    10    1
   10     8    11    1
   11    11    12    1
   12    11    13    1
   13    11    14    1
   14    14    15    1
   15    14    16    1
   16    14    17    1
   17    17    18    1
   18    17    19    1
   19    17    20    1
   20    20    21    1
   21    20    22    1
   22    22    23    1
   23    22    24    1
   24    22    25    1
   25    20    26    1
   26    26    27    1
   27    26    28    1
   28    26    29    1
@<TRIPOS>SUBSTRUCTURE
       1 MOL1            1 RESIDUE      1      MOL     
@<SCITEGIC>MOL_PROPERTY
VM2 Rank
SciTegic.value.IntegerValue
33

@<SCITEGIC>MOL_PROPERTY
Conf_Id
SciTegic.value.IntegerValue
1302

@<SCITEGIC>MOL_PROPERTY
Probability
SciTegic.value.DoubleValue
1.11

@<SCITEGIC>MOL_PROPERTY
Sum Probability
SciTegic.value.DoubleValue
78.77

@<SCITEGIC>MOL_PROPERTY
Delta G
SciTegic.value.DoubleValue
1.333

@<SCITEGIC>MOL_PROPERTY
G
SciTegic.value.DoubleValue
35.035

@<SCITEGIC>MOL_PROPERTY
E
SciTegic.value.DoubleValue
-2.459

@<SCITEGIC>MOL_PROPERTY
-TS
SciTegic.value.DoubleValue
37.495

@<SCITEGIC>MOL_PROPERTY
U+W
SciTegic.value.DoubleValue
-26.604

@<SCITEGIC>MOL_PROPERTY
U
SciTegic.value.DoubleValue
25.451

@<SCITEGIC>MOL_PROPERTY
W
SciTegic.value.DoubleValue
-52.055

@<SCITEGIC>MOL_PROPERTY
W(PB)
SciTegic.value.DoubleValue
-54.545

@<SCITEGIC>MOL_PROPERTY
W(SA)
SciTegic.value.DoubleValue
2.490

@<SCITEGIC>MOL_PROPERTY
Valence
SciTegic.value.DoubleValue
4.319

@<SCITEGIC>MOL_PROPERTY
Coulomb
SciTegic.value.DoubleValue
19.732

@<SCITEGIC>MOL_PROPERTY
VdW
SciTegic.value.DoubleValue
1.400

@<SCITEGIC>MOL_PROPERTY
VdW6
SciTegic.value.DoubleValue
-9.173

@<SCITEGIC>MOL_PROPERTY
VdW12
SciTegic.value.DoubleValue
10.573

@<SCITEGIC>MOL_PROPERTY
Bond
SciTegic.value.DoubleValue
0.281

@<SCITEGIC>MOL_PROPERTY
Angle
SciTegic.value.DoubleValue
1.459

@<SCITEGIC>MOL_PROPERTY
Pdih
SciTegic.value.DoubleValue
2.580

@<SCITEGIC>MOL_PROPERTY
Idih
SciTegic.value.DoubleValue
0.000

@<SCITEGIC>MOL_PROPERTY
Tether
SciTegic.value.DoubleValue
0.000

@<TRIPOS>MOLECULE
guest-s15_vm2.mol2 : vm2 ligand conformer 34
          29          28           1
SMALL
USER_CHARGES
 
@<TRIPOS>ATOM
       1    C1      20.268213   20.744759   20.263410 C.3        1 MOL1        -0.2426
       2    H1      19.927391   21.286456   21.154374 H          1 MOL1         0.0959
       3    H2      21.356994   20.621826   20.330246 H          1 MOL1         0.0959
       4    H3      20.054601   21.376772   19.391712 H          1 MOL1         0.0959
       5    C2      19.561986   19.376958   20.125323 C.3        1 MOL1        -0.1410
       6    H4      19.840340   18.930941   19.160262 H          1 MOL1         0.0948
       7    H5      18.473443   19.524499   20.093288 H          1 MOL1         0.0948
       8    C3      19.922309   18.381399   21.254249 C.3        1 MOL1        -0.1435
       9    H6      19.470710   17.408108   21.017557 H          1 MOL1         0.0948
      10    H7      21.009361   18.222334   21.269733 H          1 MOL1         0.0948
      11    C4      19.441407   18.835376   22.653135 C.3        1 MOL1        -0.1435
      12    H8      18.361982   19.037714   22.621661 H          1 MOL1         0.0948
      13    H9      19.936655   19.776471   22.922622 H          1 MOL1         0.0948
      14    C5      19.735929   17.767171   23.733334 C.3        1 MOL1        -0.1435
      15    H10     19.277224   16.815169   23.432506 H          1 MOL1         0.0948
      16    H11     20.816323   17.577899   23.784835 H          1 MOL1         0.0948
      17    C6      19.194706   18.149806   25.135138 C.3        1 MOL1        -0.1500
      18    H12     19.427723   17.341169   25.840527 H          1 MOL1         0.0948
      19    H13     18.099196   18.200324   25.081308 H          1 MOL1         0.0948
      20    C7      19.724711   19.488590   25.700837 C.3        1 MOL1         0.1162
      21    H14     19.477519   20.284991   24.992766 H          1 MOL1         0.0910
      22    C8      21.250755   19.469497   25.899116 C.3        1 MOL1        -0.2491
      23    H15     21.774433   19.352782   24.943129 H          1 MOL1         0.0959
      24    H16     21.594528   20.410992   26.344851 H          1 MOL1         0.0959
      25    H17     21.554554   18.648569   26.560493 H          1 MOL1         0.0959
      26    N1      19.035985   19.842444   26.989459 N.4        1 MOL1        -0.5987
      27    H18     19.354675   20.747253   27.347847 H          1 MOL1         0.3605
      28    H19     19.219878   19.144661   27.715428 H          1 MOL1         0.3605
      29    H20     18.020551   19.902354   26.870367 H          1 MOL1         0.3605
@<TRIPOS>BOND
    1     1     2    1
    2     1     3    1
    3     1     4    1
    4     1     5    1
    5     5     6    1
    6     5     7    1
    7     5     8    1
    8     8     9    1
    9     8    10    1
   10     8    11    1
   11    11    12    1
   12    11    13    1
   13    11    14    1
   14    14    15    1
   15    14    16    1
   16    14    17    1
   17    17    18    1
   18    17    19    1
   19    17    20    1
   20    20    21    1
   21    20    22    1
   22    22    23    1
   23    22    24    1
   24    22    25    1
   25    20    26    1
   26    26    27    1
   27    26    28    1
   28    26    29    1
@<TRIPOS>SUBSTRUCTURE
       1 MOL1            1 RESIDUE      1      MOL     
@<SCITEGIC>MOL_PROPERTY
VM2 Rank
SciTegic.value.IntegerValue
34

@<SCITEGIC>MOL_PROPERTY
Conf_Id
SciTegic.value.IntegerValue
1285

@<SCITEGIC>MOL_PROPERTY
Probability
SciTegic.value.DoubleValue
0.95

@<SCITEGIC>MOL_PROPERTY
Sum Probability
SciTegic.value.DoubleValue
79.71

@<SCITEGIC>MOL_PROPERTY
Delta G
SciTegic.value.DoubleValue
1.428

@<SCITEGIC>MOL_PROPERTY
G
SciTegic.value.DoubleValue
35.131

@<SCITEGIC>MOL_PROPERTY
E
SciTegic.value.DoubleValue
-2.659

@<SCITEGIC>MOL_PROPERTY
-TS
SciTegic.value.DoubleValue
37.789

@<SCITEGIC>MOL_PROPERTY
U+W
SciTegic.value.DoubleValue
-26.803

@<SCITEGIC>MOL_PROPERTY
U
SciTegic.value.DoubleValue
25.521

@<SCITEGIC>MOL_PROPERTY
W
SciTegic.value.DoubleValue
-52.324

@<SCITEGIC>MOL_PROPERTY
W(PB)
SciTegic.value.DoubleValue
-54.806

@<SCITEGIC>MOL_PROPERTY
W(SA)
SciTegic.value.DoubleValue
2.483

@<SCITEGIC>MOL_PROPERTY
Valence
SciTegic.value.DoubleValue
4.455

@<SCITEGIC>MOL_PROPERTY
Coulomb
SciTegic.value.DoubleValue
19.959

@<SCITEGIC>MOL_PROPERTY
VdW
SciTegic.value.DoubleValue
1.107

@<SCITEGIC>MOL_PROPERTY
VdW6
SciTegic.value.DoubleValue
-9.753

@<SCITEGIC>MOL_PROPERTY
VdW12
SciTegic.value.DoubleValue
10.860

@<SCITEGIC>MOL_PROPERTY
Bond
SciTegic.value.DoubleValue
0.265

@<SCITEGIC>MOL_PROPERTY
Angle
SciTegic.value.DoubleValue
1.660

@<SCITEGIC>MOL_PROPERTY
Pdih
SciTegic.value.DoubleValue
2.530

@<SCITEGIC>MOL_PROPERTY
Idih
SciTegic.value.DoubleValue
0.000

@<SCITEGIC>MOL_PROPERTY
Tether
SciTegic.value.DoubleValue
0.000

@<TRIPOS>MOLECULE
guest-s15_vm2.mol2 : vm2 ligand conformer 35
          29          28           1
SMALL
USER_CHARGES
 
@<TRIPOS>ATOM
       1    C1      19.378575   19.672990   19.051435 C.3        1 MOL1        -0.2426
       2    H1      18.539608   20.376759   19.129484 H          1 MOL1         0.0959
       3    H2      20.259643   20.228216   18.704054 H          1 MOL1         0.0959
       4    H3      19.124982   18.929739   18.284422 H          1 MOL1         0.0959
       5    C2      19.653483   18.986099   20.405936 C.3        1 MOL1        -0.1410
       6    H4      20.477245   18.268112   20.289422 H          1 MOL1         0.0948
       7    H5      18.766273   18.409126   20.698089 H          1 MOL1         0.0948
       8    C3      20.008936   20.015493   21.504700 C.3        1 MOL1        -0.1435
       9    H6      20.844863   20.635920   21.153067 H          1 MOL1         0.0948
      10    H7      19.162766   20.698857   21.660169 H          1 MOL1         0.0948
      11    C4      20.412090   19.371586   22.854047 C.3        1 MOL1        -0.1435
      12    H8      20.776503   20.169517   23.514052 H          1 MOL1         0.0948
      13    H9      21.259525   18.690194   22.696678 H          1 MOL1         0.0948
      14    C5      19.252572   18.612467   23.548034 C.3        1 MOL1        -0.1435
      15    H10     18.393165   19.283484   23.677806 H          1 MOL1         0.0948
      16    H11     18.906824   17.797705   22.899041 H          1 MOL1         0.0948
      17    C6      19.656309   17.996359   24.912383 C.3        1 MOL1        -0.1500
      18    H12     20.456714   17.263229   24.745528 H          1 MOL1         0.0948
      19    H13     18.804239   17.432855   25.315290 H          1 MOL1         0.0948
      20    C7      20.128129   19.026227   25.963424 C.3        1 MOL1         0.1162
      21    H14     20.992997   19.560623   25.559757 H          1 MOL1         0.0910
      22    C8      20.566282   18.312515   27.251994 C.3        1 MOL1        -0.2491
      23    H15     20.939776   19.034997   27.988138 H          1 MOL1         0.0959
      24    H16     19.731681   17.763062   27.705271 H          1 MOL1         0.0959
      25    H17     21.373865   17.598816   27.046587 H          1 MOL1         0.0959
      26    N1      19.079623   20.062264   26.262047 N.4        1 MOL1        -0.5987
      27    H18     19.416227   20.751636   26.940315 H          1 MOL1         0.3605
      28    H19     18.234549   19.635649   26.651041 H          1 MOL1         0.3605
      29    H20     18.808220   20.569792   25.415467 H          1 MOL1         0.3605
@<TRIPOS>BOND
    1     1     2    1
    2     1     3    1
    3     1     4    1
    4     1     5    1
    5     5     6    1
    6     5     7    1
    7     5     8    1
    8     8     9    1
    9     8    10    1
   10     8    11    1
   11    11    12    1
   12    11    13    1
   13    11    14    1
   14    14    15    1
   15    14    16    1
   16    14    17    1
   17    17    18    1
   18    17    19    1
   19    17    20    1
   20    20    21    1
   21    20    22    1
   22    22    23    1
   23    22    24    1
   24    22    25    1
   25    20    26    1
   26    26    27    1
   27    26    28    1
   28    26    29    1
@<TRIPOS>SUBSTRUCTURE
       1 MOL1            1 RESIDUE      1      MOL     
@<SCITEGIC>MOL_PROPERTY
VM2 Rank
SciTegic.value.IntegerValue
35

@<SCITEGIC>MOL_PROPERTY
Conf_Id
SciTegic.value.IntegerValue
1191

@<SCITEGIC>MOL_PROPERTY
Probability
SciTegic.value.DoubleValue
0.94

@<SCITEGIC>MOL_PROPERTY
Sum Probability
SciTegic.value.DoubleValue
80.65

@<SCITEGIC>MOL_PROPERTY
Delta G
SciTegic.value.DoubleValue
1.434

@<SCITEGIC>MOL_PROPERTY
G
SciTegic.value.DoubleValue
35.136

@<SCITEGIC>MOL_PROPERTY
E
SciTegic.value.DoubleValue
-2.510

@<SCITEGIC>MOL_PROPERTY
-TS
SciTegic.value.DoubleValue
37.647

@<SCITEGIC>MOL_PROPERTY
U+W
SciTegic.value.DoubleValue
-26.655

@<SCITEGIC>MOL_PROPERTY
U
SciTegic.value.DoubleValue
25.432

@<SCITEGIC>MOL_PROPERTY
W
SciTegic.value.DoubleValue
-52.087

@<SCITEGIC>MOL_PROPERTY
W(PB)
SciTegic.value.DoubleValue
-54.610

@<SCITEGIC>MOL_PROPERTY
W(SA)
SciTegic.value.DoubleValue
2.523

@<SCITEGIC>MOL_PROPERTY
Valence
SciTegic.value.DoubleValue
4.057

@<SCITEGIC>MOL_PROPERTY
Coulomb
SciTegic.value.DoubleValue
20.266

@<SCITEGIC>MOL_PROPERTY
VdW
SciTegic.value.DoubleValue
1.109

@<SCITEGIC>MOL_PROPERTY
VdW6
SciTegic.value.DoubleValue
-9.451

@<SCITEGIC>MOL_PROPERTY
VdW12
SciTegic.value.DoubleValue
10.560

@<SCITEGIC>MOL_PROPERTY
Bond
SciTegic.value.DoubleValue
0.265

@<SCITEGIC>MOL_PROPERTY
Angle
SciTegic.value.DoubleValue
1.407

@<SCITEGIC>MOL_PROPERTY
Pdih
SciTegic.value.DoubleValue
2.385

@<SCITEGIC>MOL_PROPERTY
Idih
SciTegic.value.DoubleValue
0.000

@<SCITEGIC>MOL_PROPERTY
Tether
SciTegic.value.DoubleValue
0.000

@<TRIPOS>MOLECULE
guest-s15_vm2.mol2 : vm2 ligand conformer 36
          29          28           1
SMALL
USER_CHARGES
 
@<TRIPOS>ATOM
       1    C1      19.156706   20.099823   19.340551 C.3        1 MOL1        -0.2426
       2    H1      19.009102   19.134825   18.838312 H          1 MOL1         0.0959
       3    H2      18.310780   20.748804   19.079272 H          1 MOL1         0.0959
       4    H3      20.069680   20.558403   18.938790 H          1 MOL1         0.0959
       5    C2      19.252847   19.919334   20.870283 C.3        1 MOL1        -0.1410
       6    H4      18.308484   19.497359   21.238725 H          1 MOL1         0.0948
       7    H5      19.370681   20.902923   21.345948 H          1 MOL1         0.0948
       8    C3      20.436524   19.003868   21.262424 C.3        1 MOL1        -0.1435
       9    H6      20.292531   18.005149   20.827622 H          1 MOL1         0.0948
      10    H7      21.358753   19.403082   20.818084 H          1 MOL1         0.0948
      11    C4      20.642683   18.880000   22.791785 C.3        1 MOL1        -0.1435
      12    H8      20.806248   19.879898   23.215202 H          1 MOL1         0.0948
      13    H9      21.565914   18.312454   22.972967 H          1 MOL1         0.0948
      14    C5      19.468023   18.175627   23.516603 C.3        1 MOL1        -0.1435
      15    H10     18.552428   18.773495   23.426731 H          1 MOL1         0.0948
      16    H11     19.258601   17.219890   23.016748 H          1 MOL1         0.0948
      17    C6      19.759830   17.894328   25.012764 C.3        1 MOL1        -0.1500
      18    H12     20.611379   17.204483   25.083044 H          1 MOL1         0.0948
      19    H13     18.902151   17.367993   25.452338 H          1 MOL1         0.0948
      20    C7      20.066432   19.158741   25.846238 C.3        1 MOL1         0.1162
      21    H14     20.933938   19.659524   25.406386 H          1 MOL1         0.0910
      22    C8      20.417408   18.774284   27.292162 C.3        1 MOL1        -0.2491
      23    H15     21.281432   18.098562   27.316733 H          1 MOL1         0.0959
      24    H16     20.674384   19.664677   27.879142 H          1 MOL1         0.0959
      25    H17     19.575942   18.271142   27.784804 H          1 MOL1         0.0959
      26    N1      18.935546   20.149994   25.821191 N.4        1 MOL1        -0.5987
      27    H18     18.718336   20.440417   24.863951 H          1 MOL1         0.3605
      28    H19     19.164498   20.993208   26.355236 H          1 MOL1         0.3605
      29    H20     18.083157   19.752630   26.224991 H          1 MOL1         0.3605
@<TRIPOS>BOND
    1     1     2    1
    2     1     3    1
    3     1     4    1
    4     1     5    1
    5     5     6    1
    6     5     7    1
    7     5     8    1
    8     8     9    1
    9     8    10    1
   10     8    11    1
   11    11    12    1
   12    11    13    1
   13    11    14    1
   14    14    15    1
   15    14    16    1
   16    14    17    1
   17    17    18    1
   18    17    19    1
   19    17    20    1
   20    20    21    1
   21    20    22    1
   22    22    23    1
   23    22    24    1
   24    22    25    1
   25    20    26    1
   26    26    27    1
   27    26    28    1
   28    26    29    1
@<TRIPOS>SUBSTRUCTURE
       1 MOL1            1 RESIDUE      1      MOL     
@<SCITEGIC>MOL_PROPERTY
VM2 Rank
SciTegic.value.IntegerValue
36

@<SCITEGIC>MOL_PROPERTY
Conf_Id
SciTegic.value.IntegerValue
661

@<SCITEGIC>MOL_PROPERTY
Probability
SciTegic.value.DoubleValue
0.90

@<SCITEGIC>MOL_PROPERTY
Sum Probability
SciTegic.value.DoubleValue
81.55

@<SCITEGIC>MOL_PROPERTY
Delta G
SciTegic.value.DoubleValue
1.456

@<SCITEGIC>MOL_PROPERTY
G
SciTegic.value.DoubleValue
35.158

@<SCITEGIC>MOL_PROPERTY
E
SciTegic.value.DoubleValue
-2.535

@<SCITEGIC>MOL_PROPERTY
-TS
SciTegic.value.DoubleValue
37.694

@<SCITEGIC>MOL_PROPERTY
U+W
SciTegic.value.DoubleValue
-26.680

@<SCITEGIC>MOL_PROPERTY
U
SciTegic.value.DoubleValue
25.640

@<SCITEGIC>MOL_PROPERTY
W
SciTegic.value.DoubleValue
-52.320

@<SCITEGIC>MOL_PROPERTY
W(PB)
SciTegic.value.DoubleValue
-54.809

@<SCITEGIC>MOL_PROPERTY
W(SA)
SciTegic.value.DoubleValue
2.490

@<SCITEGIC>MOL_PROPERTY
Valence
SciTegic.value.DoubleValue
3.985

@<SCITEGIC>MOL_PROPERTY
Coulomb
SciTegic.value.DoubleValue
20.666

@<SCITEGIC>MOL_PROPERTY
VdW
SciTegic.value.DoubleValue
0.990

@<SCITEGIC>MOL_PROPERTY
VdW6
SciTegic.value.DoubleValue
-9.569

@<SCITEGIC>MOL_PROPERTY
VdW12
SciTegic.value.DoubleValue
10.558

@<SCITEGIC>MOL_PROPERTY
Bond
SciTegic.value.DoubleValue
0.256

@<SCITEGIC>MOL_PROPERTY
Angle
SciTegic.value.DoubleValue
1.314

@<SCITEGIC>MOL_PROPERTY
Pdih
SciTegic.value.DoubleValue
2.414

@<SCITEGIC>MOL_PROPERTY
Idih
SciTegic.value.DoubleValue
0.000

@<SCITEGIC>MOL_PROPERTY
Tether
SciTegic.value.DoubleValue
0.000

@<TRIPOS>MOLECULE
guest-s15_vm2.mol2 : vm2 ligand conformer 37
          29          28           1
SMALL
USER_CHARGES
 
@<TRIPOS>ATOM
       1    C1      20.460651   19.108410   19.223485 C.3        1 MOL1        -0.2426
       2    H1      21.301509   18.526544   18.824209 H          1 MOL1         0.0959
       3    H2      19.535996   18.706516   18.789040 H          1 MOL1         0.0959
       4    H3      20.576431   20.145377   18.882134 H          1 MOL1         0.0959
       5    C2      20.427861   19.031518   20.764554 C.3        1 MOL1        -0.1410
       6    H4      21.376160   19.412702   21.168393 H          1 MOL1         0.0948
       7    H5      20.352720   17.978618   21.066875 H          1 MOL1         0.0948
       8    C3      19.247257   19.841414   21.350414 C.3        1 MOL1        -0.1435
       9    H6      19.298616   20.871664   20.971930 H          1 MOL1         0.0948
      10    H7      18.296761   19.426856   20.987218 H          1 MOL1         0.0948
      11    C4      19.236942   19.887310   22.897848 C.3        1 MOL1        -0.1435
      12    H8      18.442148   20.573966   23.220427 H          1 MOL1         0.0948
      13    H9      20.182551   20.319624   23.251326 H          1 MOL1         0.0948
      14    C5      19.004211   18.502872   23.553743 C.3        1 MOL1        -0.1435
      15    H10     18.106299   18.044405   23.117142 H          1 MOL1         0.0948
      16    H11     19.834819   17.825750   23.318865 H          1 MOL1         0.0948
      17    C6      18.817047   18.583395   25.090693 C.3        1 MOL1        -0.1500
      18    H12     18.647687   17.572138   25.483682 H          1 MOL1         0.0948
      19    H13     17.898995   19.148501   25.299076 H          1 MOL1         0.0948
      20    C7      19.988317   19.240450   25.858474 C.3        1 MOL1         0.1162
      21    H14     20.140831   20.247603   25.459491 H          1 MOL1         0.0910
      22    C8      21.299632   18.450393   25.700465 C.3        1 MOL1        -0.2491
      23    H15     21.633123   18.438017   24.656239 H          1 MOL1         0.0959
      24    H16     22.101263   18.909594   26.291899 H          1 MOL1         0.0959
      25    H17     21.180390   17.412710   26.036063 H          1 MOL1         0.0959
      26    N1      19.654083   19.410238   27.314324 N.4        1 MOL1        -0.5987
      27    H18     19.498591   18.506950   27.769986 H          1 MOL1         0.3605
      28    H19     18.806450   19.970244   27.443883 H          1 MOL1         0.3605
      29    H20     20.410402   19.880931   27.819410 H          1 MOL1         0.3605
@<TRIPOS>BOND
    1     1     2    1
    2     1     3    1
    3     1     4    1
    4     1     5    1
    5     5     6    1
    6     5     7    1
    7     5     8    1
    8     8     9    1
    9     8    10    1
   10     8    11    1
   11    11    12    1
   12    11    13    1
   13    11    14    1
   14    14    15    1
   15    14    16    1
   16    14    17    1
   17    17    18    1
   18    17    19    1
   19    17    20    1
   20    20    21    1
   21    20    22    1
   22    22    23    1
   23    22    24    1
   24    22    25    1
   25    20    26    1
   26    26    27    1
   27    26    28    1
   28    26    29    1
@<TRIPOS>SUBSTRUCTURE
       1 MOL1            1 RESIDUE      1      MOL     
@<SCITEGIC>MOL_PROPERTY
VM2 Rank
SciTegic.value.IntegerValue
37

@<SCITEGIC>MOL_PROPERTY
Conf_Id
SciTegic.value.IntegerValue
1345

@<SCITEGIC>MOL_PROPERTY
Probability
SciTegic.value.DoubleValue
0.90

@<SCITEGIC>MOL_PROPERTY
Sum Probability
SciTegic.value.DoubleValue
82.45

@<SCITEGIC>MOL_PROPERTY
Delta G
SciTegic.value.DoubleValue
1.457

@<SCITEGIC>MOL_PROPERTY
G
SciTegic.value.DoubleValue
35.159

@<SCITEGIC>MOL_PROPERTY
E
SciTegic.value.DoubleValue
-2.629

@<SCITEGIC>MOL_PROPERTY
-TS
SciTegic.value.DoubleValue
37.788

@<SCITEGIC>MOL_PROPERTY
U+W
SciTegic.value.DoubleValue
-26.774

@<SCITEGIC>MOL_PROPERTY
U
SciTegic.value.DoubleValue
25.505

@<SCITEGIC>MOL_PROPERTY
W
SciTegic.value.DoubleValue
-52.279

@<SCITEGIC>MOL_PROPERTY
W(PB)
SciTegic.value.DoubleValue
-54.762

@<SCITEGIC>MOL_PROPERTY
W(SA)
SciTegic.value.DoubleValue
2.483

@<SCITEGIC>MOL_PROPERTY
Valence
SciTegic.value.DoubleValue
4.471

@<SCITEGIC>MOL_PROPERTY
Coulomb
SciTegic.value.DoubleValue
19.979

@<SCITEGIC>MOL_PROPERTY
VdW
SciTegic.value.DoubleValue
1.055

@<SCITEGIC>MOL_PROPERTY
VdW6
SciTegic.value.DoubleValue
-9.824

@<SCITEGIC>MOL_PROPERTY
VdW12
SciTegic.value.DoubleValue
10.879

@<SCITEGIC>MOL_PROPERTY
Bond
SciTegic.value.DoubleValue
0.267

@<SCITEGIC>MOL_PROPERTY
Angle
SciTegic.value.DoubleValue
1.632

@<SCITEGIC>MOL_PROPERTY
Pdih
SciTegic.value.DoubleValue
2.572

@<SCITEGIC>MOL_PROPERTY
Idih
SciTegic.value.DoubleValue
0.000

@<SCITEGIC>MOL_PROPERTY
Tether
SciTegic.value.DoubleValue
0.000

@<TRIPOS>MOLECULE
guest-s15_vm2.mol2 : vm2 ligand conformer 38
          29          28           1
SMALL
USER_CHARGES
 
@<TRIPOS>ATOM
       1    C1      18.267197   19.078493   19.981897 C.3        1 MOL1        -0.2426
       2    H1      17.865400   18.113798   20.318247 H          1 MOL1         0.0959
       3    H2      17.418564   19.740802   19.767016 H          1 MOL1         0.0959
       4    H3      18.811946   18.913633   19.043133 H          1 MOL1         0.0959
       5    C2      19.185674   19.700551   21.054800 C.3        1 MOL1        -0.1410
       6    H4      18.596900   19.886720   21.962745 H          1 MOL1         0.0948
       7    H5      19.548280   20.676593   20.703433 H          1 MOL1         0.0948
       8    C3      20.387889   18.782517   21.377772 C.3        1 MOL1        -0.1435
       9    H6      20.027097   17.821502   21.767438 H          1 MOL1         0.0948
      10    H7      20.918342   18.548415   20.444501 H          1 MOL1         0.0948
      11    C4      21.401104   19.411051   22.369161 C.3        1 MOL1        -0.1435
      12    H8      21.840814   20.306516   21.908747 H          1 MOL1         0.0948
      13    H9      22.233737   18.709022   22.514204 H          1 MOL1         0.0948
      14    C5      20.821605   19.796837   23.754585 C.3        1 MOL1        -0.1435
      15    H10     21.632029   20.225214   24.360538 H          1 MOL1         0.0948
      16    H11     20.079261   20.595804   23.633131 H          1 MOL1         0.0948
      17    C6      20.201387   18.598993   24.517932 C.3        1 MOL1        -0.1500
      18    H12     20.930870   17.778613   24.543818 H          1 MOL1         0.0948
      19    H13     19.322046   18.222535   23.979932 H          1 MOL1         0.0948
      20    C7      19.799031   18.954581   25.965227 C.3        1 MOL1         0.1162
      21    H14     20.682141   19.344166   26.480941 H          1 MOL1         0.0910
      22    C8      19.319262   17.699001   26.710555 C.3        1 MOL1        -0.2491
      23    H15     20.103331   16.931709   26.726372 H          1 MOL1         0.0959
      24    H16     19.066603   17.937872   27.750987 H          1 MOL1         0.0959
      25    H17     18.430021   17.269053   26.232713 H          1 MOL1         0.0959
      26    N1      18.752850   20.033977   26.022071 N.4        1 MOL1        -0.5987
      27    H18     17.889879   19.741671   25.555984 H          1 MOL1         0.3605
      28    H19     19.076048   20.891354   25.565910 H          1 MOL1         0.3605
      29    H20     18.514075   20.272401   26.988929 H          1 MOL1         0.3605
@<TRIPOS>BOND
    1     1     2    1
    2     1     3    1
    3     1     4    1
    4     1     5    1
    5     5     6    1
    6     5     7    1
    7     5     8    1
    8     8     9    1
    9     8    10    1
   10     8    11    1
   11    11    12    1
   12    11    13    1
   13    11    14    1
   14    14    15    1
   15    14    16    1
   16    14    17    1
   17    17    18    1
   18    17    19    1
   19    17    20    1
   20    20    21    1
   21    20    22    1
   22    22    23    1
   23    22    24    1
   24    22    25    1
   25    20    26    1
   26    26    27    1
   27    26    28    1
   28    26    29    1
@<TRIPOS>SUBSTRUCTURE
       1 MOL1            1 RESIDUE      1      MOL     
@<SCITEGIC>MOL_PROPERTY
VM2 Rank
SciTegic.value.IntegerValue
38

@<SCITEGIC>MOL_PROPERTY
Conf_Id
SciTegic.value.IntegerValue
1340

@<SCITEGIC>MOL_PROPERTY
Probability
SciTegic.value.DoubleValue
0.85

@<SCITEGIC>MOL_PROPERTY
Sum Probability
SciTegic.value.DoubleValue
83.30

@<SCITEGIC>MOL_PROPERTY
Delta G
SciTegic.value.DoubleValue
1.490

@<SCITEGIC>MOL_PROPERTY
G
SciTegic.value.DoubleValue
35.193

@<SCITEGIC>MOL_PROPERTY
E
SciTegic.value.DoubleValue
-2.653

@<SCITEGIC>MOL_PROPERTY
-TS
SciTegic.value.DoubleValue
37.846

@<SCITEGIC>MOL_PROPERTY
U+W
SciTegic.value.DoubleValue
-26.798

@<SCITEGIC>MOL_PROPERTY
U
SciTegic.value.DoubleValue
25.620

@<SCITEGIC>MOL_PROPERTY
W
SciTegic.value.DoubleValue
-52.418

@<SCITEGIC>MOL_PROPERTY
W(PB)
SciTegic.value.DoubleValue
-54.904

@<SCITEGIC>MOL_PROPERTY
W(SA)
SciTegic.value.DoubleValue
2.485

@<SCITEGIC>MOL_PROPERTY
Valence
SciTegic.value.DoubleValue
4.137

@<SCITEGIC>MOL_PROPERTY
Coulomb
SciTegic.value.DoubleValue
20.479

@<SCITEGIC>MOL_PROPERTY
VdW
SciTegic.value.DoubleValue
1.005

@<SCITEGIC>MOL_PROPERTY
VdW6
SciTegic.value.DoubleValue
-9.764

@<SCITEGIC>MOL_PROPERTY
VdW12
SciTegic.value.DoubleValue
10.769

@<SCITEGIC>MOL_PROPERTY
Bond
SciTegic.value.DoubleValue
0.272

@<SCITEGIC>MOL_PROPERTY
Angle
SciTegic.value.DoubleValue
1.511

@<SCITEGIC>MOL_PROPERTY
Pdih
SciTegic.value.DoubleValue
2.355

@<SCITEGIC>MOL_PROPERTY
Idih
SciTegic.value.DoubleValue
0.000

@<SCITEGIC>MOL_PROPERTY
Tether
SciTegic.value.DoubleValue
0.000

@<TRIPOS>MOLECULE
guest-s15_vm2.mol2 : vm2 ligand conformer 39
          29          28           1
SMALL
USER_CHARGES
 
@<TRIPOS>ATOM
       1    C1      19.402531   20.555074   19.764117 C.3        1 MOL1        -0.2426
       2    H1      19.976907   20.959666   18.920654 H          1 MOL1         0.0959
       3    H2      18.545087   20.004882   19.355067 H          1 MOL1         0.0959
       4    H3      19.018621   21.402014   20.347673 H          1 MOL1         0.0959
       5    C2      20.286302   19.636891   20.634572 C.3        1 MOL1        -0.1410
       6    H4      21.151904   20.205665   21.002138 H          1 MOL1         0.0948
       7    H5      20.683076   18.819830   20.015827 H          1 MOL1         0.0948
       8    C3      19.500888   19.052921   21.829444 C.3        1 MOL1        -0.1435
       9    H6      19.101893   19.878618   22.433008 H          1 MOL1         0.0948
      10    H7      18.638387   18.482892   21.457510 H          1 MOL1         0.0948
      11    C4      20.387334   18.136466   22.706146 C.3        1 MOL1        -0.1435
      12    H8      21.230493   18.712765   23.109835 H          1 MOL1         0.0948
      13    H9      20.830547   17.355610   22.072819 H          1 MOL1         0.0948
      14    C5      19.614275   17.448074   23.860456 C.3        1 MOL1        -0.1435
      15    H10     18.843033   16.792504   23.433227 H          1 MOL1         0.0948
      16    H11     20.300315   16.781809   24.400318 H          1 MOL1         0.0948
      17    C6      18.940241   18.419960   24.866005 C.3        1 MOL1        -0.1500
      18    H12     18.482598   17.834547   25.674417 H          1 MOL1         0.0948
      19    H13     18.109967   18.930404   24.361616 H          1 MOL1         0.0948
      20    C7      19.883644   19.482476   25.476456 C.3        1 MOL1         0.1162
      21    H14     20.342536   20.046064   24.658648 H          1 MOL1         0.0910
      22    C8      21.003028   18.843566   26.317372 C.3        1 MOL1        -0.2491
      23    H15     20.589305   18.229607   27.127012 H          1 MOL1         0.0959
      24    H16     21.650012   18.208189   25.701414 H          1 MOL1         0.0959
      25    H17     21.638214   19.616752   26.766786 H          1 MOL1         0.0959
      26    N1      19.117757   20.480573   26.299432 N.4        1 MOL1        -0.5987
      27    H18     19.733899   21.207722   26.673999 H          1 MOL1         0.3605
      28    H19     18.655819   20.032385   27.095352 H          1 MOL1         0.3605
      29    H20     18.393763   20.949091   25.747127 H          1 MOL1         0.3605
@<TRIPOS>BOND
    1     1     2    1
    2     1     3    1
    3     1     4    1
    4     1     5    1
    5     5     6    1
    6     5     7    1
    7     5     8    1
    8     8     9    1
    9     8    10    1
   10     8    11    1
   11    11    12    1
   12    11    13    1
   13    11    14    1
   14    14    15    1
   15    14    16    1
   16    14    17    1
   17    17    18    1
   18    17    19    1
   19    17    20    1
   20    20    21    1
   21    20    22    1
   22    22    23    1
   23    22    24    1
   24    22    25    1
   25    20    26    1
   26    26    27    1
   27    26    28    1
   28    26    29    1
@<TRIPOS>SUBSTRUCTURE
       1 MOL1            1 RESIDUE      1      MOL     
@<SCITEGIC>MOL_PROPERTY
VM2 Rank
SciTegic.value.IntegerValue
39

@<SCITEGIC>MOL_PROPERTY
Conf_Id
SciTegic.value.IntegerValue
262

@<SCITEGIC>MOL_PROPERTY
Probability
SciTegic.value.DoubleValue
0.83

@<SCITEGIC>MOL_PROPERTY
Sum Probability
SciTegic.value.DoubleValue
84.14

@<SCITEGIC>MOL_PROPERTY
Delta G
SciTegic.value.DoubleValue
1.503

@<SCITEGIC>MOL_PROPERTY
G
SciTegic.value.DoubleValue
35.205

@<SCITEGIC>MOL_PROPERTY
E
SciTegic.value.DoubleValue
-2.773

@<SCITEGIC>MOL_PROPERTY
-TS
SciTegic.value.DoubleValue
37.978

@<SCITEGIC>MOL_PROPERTY
U+W
SciTegic.value.DoubleValue
-26.918

@<SCITEGIC>MOL_PROPERTY
U
SciTegic.value.DoubleValue
25.707

@<SCITEGIC>MOL_PROPERTY
W
SciTegic.value.DoubleValue
-52.625

@<SCITEGIC>MOL_PROPERTY
W(PB)
SciTegic.value.DoubleValue
-55.091

@<SCITEGIC>MOL_PROPERTY
W(SA)
SciTegic.value.DoubleValue
2.466

@<SCITEGIC>MOL_PROPERTY
Valence
SciTegic.value.DoubleValue
4.405

@<SCITEGIC>MOL_PROPERTY
Coulomb
SciTegic.value.DoubleValue
20.449

@<SCITEGIC>MOL_PROPERTY
VdW
SciTegic.value.DoubleValue
0.853

@<SCITEGIC>MOL_PROPERTY
VdW6
SciTegic.value.DoubleValue
-10.191

@<SCITEGIC>MOL_PROPERTY
VdW12
SciTegic.value.DoubleValue
11.044

@<SCITEGIC>MOL_PROPERTY
Bond
SciTegic.value.DoubleValue
0.273

@<SCITEGIC>MOL_PROPERTY
Angle
SciTegic.value.DoubleValue
1.693

@<SCITEGIC>MOL_PROPERTY
Pdih
SciTegic.value.DoubleValue
2.439

@<SCITEGIC>MOL_PROPERTY
Idih
SciTegic.value.DoubleValue
0.000

@<SCITEGIC>MOL_PROPERTY
Tether
SciTegic.value.DoubleValue
0.000

@<TRIPOS>MOLECULE
guest-s15_vm2.mol2 : vm2 ligand conformer 40
          29          28           1
SMALL
USER_CHARGES
 
@<TRIPOS>ATOM
       1    C1      18.355082   18.922367   19.941957 C.3        1 MOL1        -0.2426
       2    H1      17.570048   19.554934   20.376452 H          1 MOL1         0.0959
       3    H2      18.753914   19.432499   19.055443 H          1 MOL1         0.0959
       4    H3      17.888399   17.985817   19.610163 H          1 MOL1         0.0959
       5    C2      19.471528   18.640544   20.969474 C.3        1 MOL1        -0.1410
       6    H4      20.226336   17.982437   20.516974 H          1 MOL1         0.0948
       7    H5      19.042351   18.095868   21.820970 H          1 MOL1         0.0948
       8    C3      20.142035   19.947010   21.455431 C.3        1 MOL1        -0.1435
       9    H6      20.497181   20.511652   20.582374 H          1 MOL1         0.0948
      10    H7      19.396068   20.587344   21.944417 H          1 MOL1         0.0948
      11    C4      21.344680   19.712070   22.405718 C.3        1 MOL1        -0.1435
      12    H8      21.777620   20.685704   22.673595 H          1 MOL1         0.0948
      13    H9      22.131280   19.174588   21.858404 H          1 MOL1         0.0948
      14    C5      21.019485   18.931253   23.705230 C.3        1 MOL1        -0.1435
      15    H10     20.712937   17.909212   23.449966 H          1 MOL1         0.0948
      16    H11     21.943829   18.833674   24.291188 H          1 MOL1         0.0948
      17    C6      19.937849   19.615630   24.579939 C.3        1 MOL1        -0.1500
      18    H12     18.973086   19.612280   24.056817 H          1 MOL1         0.0948
      19    H13     20.215805   20.668699   24.718675 H          1 MOL1         0.0948
      20    C7      19.765039   18.965508   25.971250 C.3        1 MOL1         0.1162
      21    H14     20.742910   18.938891   26.461821 H          1 MOL1         0.0910
      22    C8      19.228483   17.526080   25.874275 C.3        1 MOL1        -0.2491
      23    H15     19.066959   17.105880   26.874613 H          1 MOL1         0.0959
      24    H16     18.274360   17.493801   25.333597 H          1 MOL1         0.0959
      25    H17     19.938591   16.869763   25.358111 H          1 MOL1         0.0959
      26    N1      18.871819   19.795539   26.850727 N.4        1 MOL1        -0.5987
      27    H18     19.233310   20.747014   26.964276 H          1 MOL1         0.3605
      28    H19     18.786194   19.388745   27.786616 H          1 MOL1         0.3605
      29    H20     17.927800   19.869125   26.462022 H          1 MOL1         0.3605
@<TRIPOS>BOND
    1     1     2    1
    2     1     3    1
    3     1     4    1
    4     1     5    1
    5     5     6    1
    6     5     7    1
    7     5     8    1
    8     8     9    1
    9     8    10    1
   10     8    11    1
   11    11    12    1
   12    11    13    1
   13    11    14    1
   14    14    15    1
   15    14    16    1
   16    14    17    1
   17    17    18    1
   18    17    19    1
   19    17    20    1
   20    20    21    1
   21    20    22    1
   22    22    23    1
   23    22    24    1
   24    22    25    1
   25    20    26    1
   26    26    27    1
   27    26    28    1
   28    26    29    1
@<TRIPOS>SUBSTRUCTURE
       1 MOL1            1 RESIDUE      1      MOL     
@<SCITEGIC>MOL_PROPERTY
VM2 Rank
SciTegic.value.IntegerValue
40

@<SCITEGIC>MOL_PROPERTY
Conf_Id
SciTegic.value.IntegerValue
1365

@<SCITEGIC>MOL_PROPERTY
Probability
SciTegic.value.DoubleValue
0.67

@<SCITEGIC>MOL_PROPERTY
Sum Probability
SciTegic.value.DoubleValue
84.81

@<SCITEGIC>MOL_PROPERTY
Delta G
SciTegic.value.DoubleValue
1.637

@<SCITEGIC>MOL_PROPERTY
G
SciTegic.value.DoubleValue
35.339

@<SCITEGIC>MOL_PROPERTY
E
SciTegic.value.DoubleValue
-2.533

@<SCITEGIC>MOL_PROPERTY
-TS
SciTegic.value.DoubleValue
37.872

@<SCITEGIC>MOL_PROPERTY
U+W
SciTegic.value.DoubleValue
-26.677

@<SCITEGIC>MOL_PROPERTY
U
SciTegic.value.DoubleValue
25.699

@<SCITEGIC>MOL_PROPERTY
W
SciTegic.value.DoubleValue
-52.376

@<SCITEGIC>MOL_PROPERTY
W(PB)
SciTegic.value.DoubleValue
-54.830

@<SCITEGIC>MOL_PROPERTY
W(SA)
SciTegic.value.DoubleValue
2.454

@<SCITEGIC>MOL_PROPERTY
Valence
SciTegic.value.DoubleValue
4.645

@<SCITEGIC>MOL_PROPERTY
Coulomb
SciTegic.value.DoubleValue
19.935

@<SCITEGIC>MOL_PROPERTY
VdW
SciTegic.value.DoubleValue
1.119

@<SCITEGIC>MOL_PROPERTY
VdW6
SciTegic.value.DoubleValue
-9.960

@<SCITEGIC>MOL_PROPERTY
VdW12
SciTegic.value.DoubleValue
11.079

@<SCITEGIC>MOL_PROPERTY
Bond
SciTegic.value.DoubleValue
0.284

@<SCITEGIC>MOL_PROPERTY
Angle
SciTegic.value.DoubleValue
1.754

@<SCITEGIC>MOL_PROPERTY
Pdih
SciTegic.value.DoubleValue
2.607

@<SCITEGIC>MOL_PROPERTY
Idih
SciTegic.value.DoubleValue
0.000

@<SCITEGIC>MOL_PROPERTY
Tether
SciTegic.value.DoubleValue
0.000

@<TRIPOS>MOLECULE
guest-s15_vm2.mol2 : vm2 ligand conformer 41
          29          28           1
SMALL
USER_CHARGES
 
@<TRIPOS>ATOM
       1    C1      19.996027   19.211508   18.997247 C.3        1 MOL1        -0.2426
       2    H1      20.910628   18.607537   18.934212 H          1 MOL1         0.0959
       3    H2      19.279101   18.815033   18.266587 H          1 MOL1         0.0959
       4    H3      20.243904   20.239472   18.702157 H          1 MOL1         0.0959
       5    C2      19.401886   19.170399   20.421102 C.3        1 MOL1        -0.1410
       6    H4      19.129392   18.134604   20.662436 H          1 MOL1         0.0948
       7    H5      18.473990   19.758680   20.445486 H          1 MOL1         0.0948
       8    C3      20.397322   19.720867   21.469609 C.3        1 MOL1        -0.1435
       9    H6      21.302582   19.098373   21.484251 H          1 MOL1         0.0948
      10    H7      20.719305   20.725004   21.160790 H          1 MOL1         0.0948
      11    C4      19.808079   19.814479   22.898543 C.3        1 MOL1        -0.1435
      12    H8      18.903432   20.437804   22.882791 H          1 MOL1         0.0948
      13    H9      20.535473   20.340944   23.530213 H          1 MOL1         0.0948
      14    C5      19.482709   18.434740   23.525084 C.3        1 MOL1        -0.1435
      15    H10     18.740302   17.915604   22.905595 H          1 MOL1         0.0948
      16    H11     20.379223   17.801011   23.517198 H          1 MOL1         0.0948
      17    C6      18.914250   18.536031   24.964443 C.3        1 MOL1        -0.1500
      18    H12     18.682705   17.525856   25.327372 H          1 MOL1         0.0948
      19    H13     17.956112   19.070549   24.921356 H          1 MOL1         0.0948
      20    C7      19.831679   19.245769   25.988234 C.3        1 MOL1         0.1162
      21    H14     20.043973   20.254386   25.621962 H          1 MOL1         0.0910
      22    C8      21.167424   18.505712   26.179440 C.3        1 MOL1        -0.2491
      23    H15     21.004169   17.467010   26.492625 H          1 MOL1         0.0959
      24    H16     21.753527   18.497718   25.253072 H          1 MOL1         0.0959
      25    H17     21.777378   19.000482   26.945232 H          1 MOL1         0.0959
      26    N1      19.136625   19.416495   27.310298 N.4        1 MOL1        -0.5987
      27    H18     18.264434   19.944316   27.212472 H          1 MOL1         0.3605
      28    H19     19.724712   19.921169   27.979736 H          1 MOL1         0.3605
      29    H20     18.903603   18.512300   27.729672 H          1 MOL1         0.3605
@<TRIPOS>BOND
    1     1     2    1
    2     1     3    1
    3     1     4    1
    4     1     5    1
    5     5     6    1
    6     5     7    1
    7     5     8    1
    8     8     9    1
    9     8    10    1
   10     8    11    1
   11    11    12    1
   12    11    13    1
   13    11    14    1
   14    14    15    1
   15    14    16    1
   16    14    17    1
   17    17    18    1
   18    17    19    1
   19    17    20    1
   20    20    21    1
   21    20    22    1
   22    22    23    1
   23    22    24    1
   24    22    25    1
   25    20    26    1
   26    26    27    1
   27    26    28    1
   28    26    29    1
@<TRIPOS>SUBSTRUCTURE
       1 MOL1            1 RESIDUE      1      MOL     
@<SCITEGIC>MOL_PROPERTY
VM2 Rank
SciTegic.value.IntegerValue
41

@<SCITEGIC>MOL_PROPERTY
Conf_Id
SciTegic.value.IntegerValue
344

@<SCITEGIC>MOL_PROPERTY
Probability
SciTegic.value.DoubleValue
0.67

@<SCITEGIC>MOL_PROPERTY
Sum Probability
SciTegic.value.DoubleValue
85.47

@<SCITEGIC>MOL_PROPERTY
Delta G
SciTegic.value.DoubleValue
1.638

@<SCITEGIC>MOL_PROPERTY
G
SciTegic.value.DoubleValue
35.340

@<SCITEGIC>MOL_PROPERTY
E
SciTegic.value.DoubleValue
-2.400

@<SCITEGIC>MOL_PROPERTY
-TS
SciTegic.value.DoubleValue
37.740

@<SCITEGIC>MOL_PROPERTY
U+W
SciTegic.value.DoubleValue
-26.544

@<SCITEGIC>MOL_PROPERTY
U
SciTegic.value.DoubleValue
25.622

@<SCITEGIC>MOL_PROPERTY
W
SciTegic.value.DoubleValue
-52.166

@<SCITEGIC>MOL_PROPERTY
W(PB)
SciTegic.value.DoubleValue
-54.631

@<SCITEGIC>MOL_PROPERTY
W(SA)
SciTegic.value.DoubleValue
2.464

@<SCITEGIC>MOL_PROPERTY
Valence
SciTegic.value.DoubleValue
4.553

@<SCITEGIC>MOL_PROPERTY
Coulomb
SciTegic.value.DoubleValue
19.890

@<SCITEGIC>MOL_PROPERTY
VdW
SciTegic.value.DoubleValue
1.179

@<SCITEGIC>MOL_PROPERTY
VdW6
SciTegic.value.DoubleValue
-9.672

@<SCITEGIC>MOL_PROPERTY
VdW12
SciTegic.value.DoubleValue
10.851

@<SCITEGIC>MOL_PROPERTY
Bond
SciTegic.value.DoubleValue
0.276

@<SCITEGIC>MOL_PROPERTY
Angle
SciTegic.value.DoubleValue
1.749

@<SCITEGIC>MOL_PROPERTY
Pdih
SciTegic.value.DoubleValue
2.528

@<SCITEGIC>MOL_PROPERTY
Idih
SciTegic.value.DoubleValue
0.000

@<SCITEGIC>MOL_PROPERTY
Tether
SciTegic.value.DoubleValue
0.000

@<TRIPOS>MOLECULE
guest-s15_vm2.mol2 : vm2 ligand conformer 42
          29          28           1
SMALL
USER_CHARGES
 
@<TRIPOS>ATOM
       1    C1      19.242366   20.183329   19.629368 C.3        1 MOL1        -0.2426
       2    H1      18.322853   20.584239   20.075218 H          1 MOL1         0.0959
       3    H2      20.077220   20.833308   19.919399 H          1 MOL1         0.0959
       4    H3      19.140590   20.243645   18.538076 H          1 MOL1         0.0959
       5    C2      19.482083   18.721666   20.070334 C.3        1 MOL1        -0.1410
       6    H4      20.420266   18.352800   19.632773 H          1 MOL1         0.0948
       7    H5      18.681824   18.091116   19.658351 H          1 MOL1         0.0948
       8    C3      19.514905   18.542494   21.607163 C.3        1 MOL1        -0.1435
       9    H6      18.561510   18.887032   22.028864 H          1 MOL1         0.0948
      10    H7      19.585530   17.469462   21.832322 H          1 MOL1         0.0948
      11    C4      20.695617   19.281628   22.285839 C.3        1 MOL1        -0.1435
      12    H8      20.576213   20.367084   22.171252 H          1 MOL1         0.0948
      13    H9      21.628813   19.016141   21.770328 H          1 MOL1         0.0948
      14    C5      20.849709   18.942083   23.788574 C.3        1 MOL1        -0.1435
      15    H10     21.009708   17.861244   23.897010 H          1 MOL1         0.0948
      16    H11     21.758803   19.430786   24.165543 H          1 MOL1         0.0948
      17    C6      19.639938   19.393329   24.646891 C.3        1 MOL1        -0.1500
      18    H12     18.747763   18.815660   24.373684 H          1 MOL1         0.0948
      19    H13     19.417441   20.442916   24.413658 H          1 MOL1         0.0948
      20    C7      19.881067   19.269934   26.168508 C.3        1 MOL1         0.1162
      21    H14     20.793099   19.821210   26.417307 H          1 MOL1         0.0910
      22    C8      20.060900   17.806158   26.609099 C.3        1 MOL1        -0.2491
      23    H15     19.192898   17.197343   26.326918 H          1 MOL1         0.0959
      24    H16     20.954769   17.360896   26.157142 H          1 MOL1         0.0959
      25    H17     20.181762   17.742418   27.697523 H          1 MOL1         0.0959
      26    N1      18.769415   19.915379   26.948223 N.4        1 MOL1        -0.5987
      27    H18     17.872814   19.453517   26.773575 H          1 MOL1         0.3605
      28    H19     18.660175   20.903386   26.701660 H          1 MOL1         0.3605
      29    H20     18.944930   19.870788   27.956155 H          1 MOL1         0.3605
@<TRIPOS>BOND
    1     1     2    1
    2     1     3    1
    3     1     4    1
    4     1     5    1
    5     5     6    1
    6     5     7    1
    7     5     8    1
    8     8     9    1
    9     8    10    1
   10     8    11    1
   11    11    12    1
   12    11    13    1
   13    11    14    1
   14    14    15    1
   15    14    16    1
   16    14    17    1
   17    17    18    1
   18    17    19    1
   19    17    20    1
   20    20    21    1
   21    20    22    1
   22    22    23    1
   23    22    24    1
   24    22    25    1
   25    20    26    1
   26    26    27    1
   27    26    28    1
   28    26    29    1
@<TRIPOS>SUBSTRUCTURE
       1 MOL1            1 RESIDUE      1      MOL     
@<SCITEGIC>MOL_PROPERTY
VM2 Rank
SciTegic.value.IntegerValue
42

@<SCITEGIC>MOL_PROPERTY
Conf_Id
SciTegic.value.IntegerValue
671

@<SCITEGIC>MOL_PROPERTY
Probability
SciTegic.value.DoubleValue
0.66

@<SCITEGIC>MOL_PROPERTY
Sum Probability
SciTegic.value.DoubleValue
86.13

@<SCITEGIC>MOL_PROPERTY
Delta G
SciTegic.value.DoubleValue
1.640

@<SCITEGIC>MOL_PROPERTY
G
SciTegic.value.DoubleValue
35.342

@<SCITEGIC>MOL_PROPERTY
E
SciTegic.value.DoubleValue
-2.323

@<SCITEGIC>MOL_PROPERTY
-TS
SciTegic.value.DoubleValue
37.665

@<SCITEGIC>MOL_PROPERTY
U+W
SciTegic.value.DoubleValue
-26.468

@<SCITEGIC>MOL_PROPERTY
U
SciTegic.value.DoubleValue
25.687

@<SCITEGIC>MOL_PROPERTY
W
SciTegic.value.DoubleValue
-52.155

@<SCITEGIC>MOL_PROPERTY
W(PB)
SciTegic.value.DoubleValue
-54.644

@<SCITEGIC>MOL_PROPERTY
W(SA)
SciTegic.value.DoubleValue
2.489

@<SCITEGIC>MOL_PROPERTY
Valence
SciTegic.value.DoubleValue
4.682

@<SCITEGIC>MOL_PROPERTY
Coulomb
SciTegic.value.DoubleValue
19.653

@<SCITEGIC>MOL_PROPERTY
VdW
SciTegic.value.DoubleValue
1.352

@<SCITEGIC>MOL_PROPERTY
VdW6
SciTegic.value.DoubleValue
-9.478

@<SCITEGIC>MOL_PROPERTY
VdW12
SciTegic.value.DoubleValue
10.830

@<SCITEGIC>MOL_PROPERTY
Bond
SciTegic.value.DoubleValue
0.274

@<SCITEGIC>MOL_PROPERTY
Angle
SciTegic.value.DoubleValue
1.549

@<SCITEGIC>MOL_PROPERTY
Pdih
SciTegic.value.DoubleValue
2.858

@<SCITEGIC>MOL_PROPERTY
Idih
SciTegic.value.DoubleValue
0.000

@<SCITEGIC>MOL_PROPERTY
Tether
SciTegic.value.DoubleValue
0.000

@<TRIPOS>MOLECULE
guest-s15_vm2.mol2 : vm2 ligand conformer 43
          29          28           1
SMALL
USER_CHARGES
 
@<TRIPOS>ATOM
       1    C1      21.002567   18.926503   19.785497 C.3        1 MOL1        -0.2426
       2    H1      21.788115   19.632079   20.085962 H          1 MOL1         0.0959
       3    H2      21.490205   18.003729   19.445346 H          1 MOL1         0.0959
       4    H3      20.464055   19.357461   18.931397 H          1 MOL1         0.0959
       5    C2      20.041892   18.634857   20.957551 C.3        1 MOL1        -0.1410
       6    H4      20.608687   18.169401   21.774864 H          1 MOL1         0.0948
       7    H5      19.285853   17.904722   20.636772 H          1 MOL1         0.0948
       8    C3      19.345175   19.922213   21.457466 C.3        1 MOL1        -0.1435
       9    H6      20.097884   20.636210   21.816757 H          1 MOL1         0.0948
      10    H7      18.848550   20.411509   20.608276 H          1 MOL1         0.0948
      11    C4      18.285085   19.667515   22.560277 C.3        1 MOL1        -0.1435
      12    H8      17.474646   19.056699   22.139248 H          1 MOL1         0.0948
      13    H9      17.825379   20.626709   22.835511 H          1 MOL1         0.0948
      14    C5      18.813030   18.976086   23.843887 C.3        1 MOL1        -0.1435
      15    H10     17.967434   18.848697   24.532190 H          1 MOL1         0.0948
      16    H11     19.158479   17.964127   23.598150 H          1 MOL1         0.0948
      17    C6      19.942556   19.772830   24.551799 C.3        1 MOL1        -0.1500
      18    H12     19.608960   20.806296   24.712541 H          1 MOL1         0.0948
      19    H13     20.818492   19.834962   23.893962 H          1 MOL1         0.0948
      20    C7      20.398004   19.186926   25.908924 C.3        1 MOL1         0.1162
      21    H14     21.176949   19.847041   26.302934 H          1 MOL1         0.0910
      22    C8      21.010656   17.783939   25.755172 C.3        1 MOL1        -0.2491
      23    H15     20.259708   17.044538   25.452455 H          1 MOL1         0.0959
      24    H16     21.811372   17.788211   25.005211 H          1 MOL1         0.0959
      25    H17     21.446141   17.449534   26.704757 H          1 MOL1         0.0959
      26    N1      19.297034   19.185131   26.933426 N.4        1 MOL1        -0.5987
      27    H18     19.632364   18.853279   27.842294 H          1 MOL1         0.3605
      28    H19     18.526380   18.575460   26.649138 H          1 MOL1         0.3605
      29    H20     18.912730   20.124037   27.072869 H          1 MOL1         0.3605
@<TRIPOS>BOND
    1     1     2    1
    2     1     3    1
    3     1     4    1
    4     1     5    1
    5     5     6    1
    6     5     7    1
    7     5     8    1
    8     8     9    1
    9     8    10    1
   10     8    11    1
   11    11    12    1
   12    11    13    1
   13    11    14    1
   14    14    15    1
   15    14    16    1
   16    14    17    1
   17    17    18    1
   18    17    19    1
   19    17    20    1
   20    20    21    1
   21    20    22    1
   22    22    23    1
   23    22    24    1
   24    22    25    1
   25    20    26    1
   26    26    27    1
   27    26    28    1
   28    26    29    1
@<TRIPOS>SUBSTRUCTURE
       1 MOL1            1 RESIDUE      1      MOL     
@<SCITEGIC>MOL_PROPERTY
VM2 Rank
SciTegic.value.IntegerValue
43

@<SCITEGIC>MOL_PROPERTY
Conf_Id
SciTegic.value.IntegerValue
1245

@<SCITEGIC>MOL_PROPERTY
Probability
SciTegic.value.DoubleValue
0.62

@<SCITEGIC>MOL_PROPERTY
Sum Probability
SciTegic.value.DoubleValue
86.75

@<SCITEGIC>MOL_PROPERTY
Delta G
SciTegic.value.DoubleValue
1.684

@<SCITEGIC>MOL_PROPERTY
G
SciTegic.value.DoubleValue
35.387

@<SCITEGIC>MOL_PROPERTY
E
SciTegic.value.DoubleValue
-2.615

@<SCITEGIC>MOL_PROPERTY
-TS
SciTegic.value.DoubleValue
38.002

@<SCITEGIC>MOL_PROPERTY
U+W
SciTegic.value.DoubleValue
-26.759

@<SCITEGIC>MOL_PROPERTY
U
SciTegic.value.DoubleValue
25.698

@<SCITEGIC>MOL_PROPERTY
W
SciTegic.value.DoubleValue
-52.458

@<SCITEGIC>MOL_PROPERTY
W(PB)
SciTegic.value.DoubleValue
-54.885

@<SCITEGIC>MOL_PROPERTY
W(SA)
SciTegic.value.DoubleValue
2.427

@<SCITEGIC>MOL_PROPERTY
Valence
SciTegic.value.DoubleValue
4.638

@<SCITEGIC>MOL_PROPERTY
Coulomb
SciTegic.value.DoubleValue
19.916

@<SCITEGIC>MOL_PROPERTY
VdW
SciTegic.value.DoubleValue
1.144

@<SCITEGIC>MOL_PROPERTY
VdW6
SciTegic.value.DoubleValue
-10.434

@<SCITEGIC>MOL_PROPERTY
VdW12
SciTegic.value.DoubleValue
11.578

@<SCITEGIC>MOL_PROPERTY
Bond
SciTegic.value.DoubleValue
0.315

@<SCITEGIC>MOL_PROPERTY
Angle
SciTegic.value.DoubleValue
1.852

@<SCITEGIC>MOL_PROPERTY
Pdih
SciTegic.value.DoubleValue
2.471

@<SCITEGIC>MOL_PROPERTY
Idih
SciTegic.value.DoubleValue
0.000

@<SCITEGIC>MOL_PROPERTY
Tether
SciTegic.value.DoubleValue
0.000

@<TRIPOS>MOLECULE
guest-s15_vm2.mol2 : vm2 ligand conformer 44
          29          28           1
SMALL
USER_CHARGES
 
@<TRIPOS>ATOM
       1    C1      19.674898   20.581596   20.155142 C.3        1 MOL1        -0.2426
       2    H1      19.247468   20.992350   21.078345 H          1 MOL1         0.0959
       3    H2      20.266354   21.376351   19.682514 H          1 MOL1         0.0959
       4    H3      18.850074   20.327464   19.476888 H          1 MOL1         0.0959
       5    C2      20.558524   19.346621   20.441574 C.3        1 MOL1        -0.1410
       6    H4      21.363416   19.619925   21.136885 H          1 MOL1         0.0948
       7    H5      21.056642   19.044482   19.509791 H          1 MOL1         0.0948
       8    C3      19.764072   18.134481   20.991106 C.3        1 MOL1        -0.1435
       9    H6      19.048391   17.803232   20.226139 H          1 MOL1         0.0948
      10    H7      20.457044   17.294623   21.137847 H          1 MOL1         0.0948
      11    C4      18.995207   18.390221   22.313088 C.3        1 MOL1        -0.1435
      12    H8      18.464070   17.468326   22.587302 H          1 MOL1         0.0948
      13    H9      18.218512   19.149673   22.152767 H          1 MOL1         0.0948
      14    C5      19.908915   18.813398   23.488114 C.3        1 MOL1        -0.1435
      15    H10     20.711400   18.072886   23.600823 H          1 MOL1         0.0948
      16    H11     20.387092   19.775333   23.260954 H          1 MOL1         0.0948
      17    C6      19.115196   18.943251   24.811234 C.3        1 MOL1        -0.1500
      18    H12     18.692169   17.968114   25.086993 H          1 MOL1         0.0948
      19    H13     18.263633   19.615684   24.642709 H          1 MOL1         0.0948
      20    C7      19.951237   19.498430   25.986855 C.3        1 MOL1         0.1162
      21    H14     20.393391   20.449535   25.674571 H          1 MOL1         0.0910
      22    C8      21.087463   18.542965   26.393398 C.3        1 MOL1        -0.2491
      23    H15     21.816768   18.423181   25.583974 H          1 MOL1         0.0959
      24    H16     21.629781   18.935451   27.262415 H          1 MOL1         0.0959
      25    H17     20.697519   17.551447   26.655212 H          1 MOL1         0.0959
      26    N1      19.080488   19.805037   27.173489 N.4        1 MOL1        -0.5987
      27    H18     18.626895   18.960593   27.532558 H          1 MOL1         0.3605
      28    H19     18.342175   20.474147   26.936696 H          1 MOL1         0.3605
      29    H20     19.623734   20.210132   27.941274 H          1 MOL1         0.3605
@<TRIPOS>BOND
    1     1     2    1
    2     1     3    1
    3     1     4    1
    4     1     5    1
    5     5     6    1
    6     5     7    1
    7     5     8    1
    8     8     9    1
    9     8    10    1
   10     8    11    1
   11    11    12    1
   12    11    13    1
   13    11    14    1
   14    14    15    1
   15    14    16    1
   16    14    17    1
   17    17    18    1
   18    17    19    1
   19    17    20    1
   20    20    21    1
   21    20    22    1
   22    22    23    1
   23    22    24    1
   24    22    25    1
   25    20    26    1
   26    26    27    1
   27    26    28    1
   28    26    29    1
@<TRIPOS>SUBSTRUCTURE
       1 MOL1            1 RESIDUE      1      MOL     
@<SCITEGIC>MOL_PROPERTY
VM2 Rank
SciTegic.value.IntegerValue
44

@<SCITEGIC>MOL_PROPERTY
Conf_Id
SciTegic.value.IntegerValue
1043

@<SCITEGIC>MOL_PROPERTY
Probability
SciTegic.value.DoubleValue
0.60

@<SCITEGIC>MOL_PROPERTY
Sum Probability
SciTegic.value.DoubleValue
87.35

@<SCITEGIC>MOL_PROPERTY
Delta G
SciTegic.value.DoubleValue
1.700

@<SCITEGIC>MOL_PROPERTY
G
SciTegic.value.DoubleValue
35.402

@<SCITEGIC>MOL_PROPERTY
E
SciTegic.value.DoubleValue
-2.432

@<SCITEGIC>MOL_PROPERTY
-TS
SciTegic.value.DoubleValue
37.834

@<SCITEGIC>MOL_PROPERTY
U+W
SciTegic.value.DoubleValue
-26.577

@<SCITEGIC>MOL_PROPERTY
U
SciTegic.value.DoubleValue
25.529

@<SCITEGIC>MOL_PROPERTY
W
SciTegic.value.DoubleValue
-52.106

@<SCITEGIC>MOL_PROPERTY
W(PB)
SciTegic.value.DoubleValue
-54.578

@<SCITEGIC>MOL_PROPERTY
W(SA)
SciTegic.value.DoubleValue
2.473

@<SCITEGIC>MOL_PROPERTY
Valence
SciTegic.value.DoubleValue
4.665

@<SCITEGIC>MOL_PROPERTY
Coulomb
SciTegic.value.DoubleValue
19.602

@<SCITEGIC>MOL_PROPERTY
VdW
SciTegic.value.DoubleValue
1.262

@<SCITEGIC>MOL_PROPERTY
VdW6
SciTegic.value.DoubleValue
-9.717

@<SCITEGIC>MOL_PROPERTY
VdW12
SciTegic.value.DoubleValue
10.979

@<SCITEGIC>MOL_PROPERTY
Bond
SciTegic.value.DoubleValue
0.278

@<SCITEGIC>MOL_PROPERTY
Angle
SciTegic.value.DoubleValue
1.798

@<SCITEGIC>MOL_PROPERTY
Pdih
SciTegic.value.DoubleValue
2.589

@<SCITEGIC>MOL_PROPERTY
Idih
SciTegic.value.DoubleValue
0.000

@<SCITEGIC>MOL_PROPERTY
Tether
SciTegic.value.DoubleValue
0.000

@<TRIPOS>MOLECULE
guest-s15_vm2.mol2 : vm2 ligand conformer 45
          29          28           1
SMALL
USER_CHARGES
 
@<TRIPOS>ATOM
       1    C1      20.402436   20.730412   20.611175 C.3        1 MOL1        -0.2426
       2    H1      19.565412   21.255297   21.087983 H          1 MOL1         0.0959
       3    H2      21.298334   20.878814   21.227900 H          1 MOL1         0.0959
       4    H3      20.580851   21.208429   19.639284 H          1 MOL1         0.0959
       5    C2      20.097941   19.226526   20.426183 C.3        1 MOL1        -0.1410
       6    H4      20.908296   18.770355   19.840556 H          1 MOL1         0.0948
       7    H5      19.182185   19.104851   19.830972 H          1 MOL1         0.0948
       8    C3      19.959604   18.460602   21.763598 C.3        1 MOL1        -0.1435
       9    H6      19.855010   17.389108   21.544447 H          1 MOL1         0.0948
      10    H7      20.889195   18.571677   22.337173 H          1 MOL1         0.0948
      11    C4      18.749368   18.923423   22.613085 C.3        1 MOL1        -0.1435
      12    H8      17.845373   18.901542   21.989071 H          1 MOL1         0.0948
      13    H9      18.882037   19.968801   22.918610 H          1 MOL1         0.0948
      14    C5      18.502662   18.041208   23.864061 C.3        1 MOL1        -0.1435
      15    H10     17.608885   18.407489   24.386704 H          1 MOL1         0.0948
      16    H11     18.257858   17.020447   23.539609 H          1 MOL1         0.0948
      17    C6      19.691681   17.976028   24.859577 C.3        1 MOL1        -0.1500
      18    H12     20.523745   17.434828   24.391136 H          1 MOL1         0.0948
      19    H13     19.395754   17.375581   25.729998 H          1 MOL1         0.0948
      20    C7      20.190844   19.357637   25.337113 C.3        1 MOL1         0.1162
      21    H14     20.482572   19.940429   24.458254 H          1 MOL1         0.0910
      22    C8      21.424960   19.199438   26.238886 C.3        1 MOL1        -0.2491
      23    H15     21.186201   18.622590   27.141182 H          1 MOL1         0.0959
      24    H16     22.232747   18.682204   25.706273 H          1 MOL1         0.0959
      25    H17     21.806126   20.179687   26.550642 H          1 MOL1         0.0959
      26    N1      19.116505   20.140727   26.040323 N.4        1 MOL1        -0.5987
      27    H18     18.301661   20.277308   25.436051 H          1 MOL1         0.3605
      28    H19     19.450817   21.066541   26.322515 H          1 MOL1         0.3605
      29    H20     18.797121   19.658800   26.884822 H          1 MOL1         0.3605
@<TRIPOS>BOND
    1     1     2    1
    2     1     3    1
    3     1     4    1
    4     1     5    1
    5     5     6    1
    6     5     7    1
    7     5     8    1
    8     8     9    1
    9     8    10    1
   10     8    11    1
   11    11    12    1
   12    11    13    1
   13    11    14    1
   14    14    15    1
   15    14    16    1
   16    14    17    1
   17    17    18    1
   18    17    19    1
   19    17    20    1
   20    20    21    1
   21    20    22    1
   22    22    23    1
   23    22    24    1
   24    22    25    1
   25    20    26    1
   26    26    27    1
   27    26    28    1
   28    26    29    1
@<TRIPOS>SUBSTRUCTURE
       1 MOL1            1 RESIDUE      1      MOL     
@<SCITEGIC>MOL_PROPERTY
VM2 Rank
SciTegic.value.IntegerValue
45

@<SCITEGIC>MOL_PROPERTY
Conf_Id
SciTegic.value.IntegerValue
108

@<SCITEGIC>MOL_PROPERTY
Probability
SciTegic.value.DoubleValue
0.60

@<SCITEGIC>MOL_PROPERTY
Sum Probability
SciTegic.value.DoubleValue
87.95

@<SCITEGIC>MOL_PROPERTY
Delta G
SciTegic.value.DoubleValue
1.704

@<SCITEGIC>MOL_PROPERTY
G
SciTegic.value.DoubleValue
35.406

@<SCITEGIC>MOL_PROPERTY
E
SciTegic.value.DoubleValue
-2.579

@<SCITEGIC>MOL_PROPERTY
-TS
SciTegic.value.DoubleValue
37.985

@<SCITEGIC>MOL_PROPERTY
U+W
SciTegic.value.DoubleValue
-26.723

@<SCITEGIC>MOL_PROPERTY
U
SciTegic.value.DoubleValue
25.699

@<SCITEGIC>MOL_PROPERTY
W
SciTegic.value.DoubleValue
-52.422

@<SCITEGIC>MOL_PROPERTY
W(PB)
SciTegic.value.DoubleValue
-54.852

@<SCITEGIC>MOL_PROPERTY
W(SA)
SciTegic.value.DoubleValue
2.430

@<SCITEGIC>MOL_PROPERTY
Valence
SciTegic.value.DoubleValue
4.391

@<SCITEGIC>MOL_PROPERTY
Coulomb
SciTegic.value.DoubleValue
20.476

@<SCITEGIC>MOL_PROPERTY
VdW
SciTegic.value.DoubleValue
0.832

@<SCITEGIC>MOL_PROPERTY
VdW6
SciTegic.value.DoubleValue
-10.723

@<SCITEGIC>MOL_PROPERTY
VdW12
SciTegic.value.DoubleValue
11.555

@<SCITEGIC>MOL_PROPERTY
Bond
SciTegic.value.DoubleValue
0.298

@<SCITEGIC>MOL_PROPERTY
Angle
SciTegic.value.DoubleValue
1.586

@<SCITEGIC>MOL_PROPERTY
Pdih
SciTegic.value.DoubleValue
2.506

@<SCITEGIC>MOL_PROPERTY
Idih
SciTegic.value.DoubleValue
0.000

@<SCITEGIC>MOL_PROPERTY
Tether
SciTegic.value.DoubleValue
0.000

@<TRIPOS>MOLECULE
guest-s15_vm2.mol2 : vm2 ligand conformer 46
          29          28           1
SMALL
USER_CHARGES
 
@<TRIPOS>ATOM
       1    C1      19.925280   17.984422   20.181935 C.3        1 MOL1        -0.2426
       2    H1      19.407865   17.143010   19.703257 H          1 MOL1         0.0959
       3    H2      20.633265   18.401881   19.454318 H          1 MOL1         0.0959
       4    H3      20.497336   17.582622   21.027538 H          1 MOL1         0.0959
       5    C2      18.908962   19.053122   20.643456 C.3        1 MOL1        -0.1410
       6    H4      18.225131   18.618655   21.384793 H          1 MOL1         0.0948
       7    H5      18.281564   19.337554   19.787248 H          1 MOL1         0.0948
       8    C3      19.574709   20.331906   21.212781 C.3        1 MOL1        -0.1435
       9    H6      20.151609   20.816977   20.413419 H          1 MOL1         0.0948
      10    H7      18.787795   21.046310   21.491132 H          1 MOL1         0.0948
      11    C4      20.506662   20.108532   22.431779 C.3        1 MOL1        -0.1435
      12    H8      20.925662   21.080140   22.727626 H          1 MOL1         0.0948
      13    H9      21.363294   19.487209   22.138752 H          1 MOL1         0.0948
      14    C5      19.792137   19.475176   23.649434 C.3        1 MOL1        -0.1435
      15    H10     18.910904   20.078491   23.903765 H          1 MOL1         0.0948
      16    H11     19.431498   18.475182   23.379057 H          1 MOL1         0.0948
      17    C6      20.737392   19.372874   24.874680 C.3        1 MOL1        -0.1500
      18    H12     21.127548   20.370863   25.113813 H          1 MOL1         0.0948
      19    H13     21.610837   18.762875   24.608681 H          1 MOL1         0.0948
      20    C7      20.089534   18.783891   26.150013 C.3        1 MOL1         0.1162
      21    H14     20.849462   18.799524   26.937432 H          1 MOL1         0.0910
      22    C8      19.652107   17.321623   25.955215 C.3        1 MOL1        -0.2491
      23    H15     20.484096   16.712289   25.580938 H          1 MOL1         0.0959
      24    H16     19.325958   16.888970   26.908961 H          1 MOL1         0.0959
      25    H17     18.818686   17.237894   25.247690 H          1 MOL1         0.0959
      26    N1      18.949218   19.624453   26.654708 N.4        1 MOL1        -0.5987
      27    H18     18.182285   19.653666   25.978339 H          1 MOL1         0.3605
      28    H19     19.243434   20.589549   26.830009 H          1 MOL1         0.3605
      29    H20     18.571863   19.255043   27.532076 H          1 MOL1         0.3605
@<TRIPOS>BOND
    1     1     2    1
    2     1     3    1
    3     1     4    1
    4     1     5    1
    5     5     6    1
    6     5     7    1
    7     5     8    1
    8     8     9    1
    9     8    10    1
   10     8    11    1
   11    11    12    1
   12    11    13    1
   13    11    14    1
   14    14    15    1
   15    14    16    1
   16    14    17    1
   17    17    18    1
   18    17    19    1
   19    17    20    1
   20    20    21    1
   21    20    22    1
   22    22    23    1
   23    22    24    1
   24    22    25    1
   25    20    26    1
   26    26    27    1
   27    26    28    1
   28    26    29    1
@<TRIPOS>SUBSTRUCTURE
       1 MOL1            1 RESIDUE      1      MOL     
@<SCITEGIC>MOL_PROPERTY
VM2 Rank
SciTegic.value.IntegerValue
46

@<SCITEGIC>MOL_PROPERTY
Conf_Id
SciTegic.value.IntegerValue
1318

@<SCITEGIC>MOL_PROPERTY
Probability
SciTegic.value.DoubleValue
0.58

@<SCITEGIC>MOL_PROPERTY
Sum Probability
SciTegic.value.DoubleValue
88.53

@<SCITEGIC>MOL_PROPERTY
Delta G
SciTegic.value.DoubleValue
1.718

@<SCITEGIC>MOL_PROPERTY
G
SciTegic.value.DoubleValue
35.420

@<SCITEGIC>MOL_PROPERTY
E
SciTegic.value.DoubleValue
-2.552

@<SCITEGIC>MOL_PROPERTY
-TS
SciTegic.value.DoubleValue
37.972

@<SCITEGIC>MOL_PROPERTY
U+W
SciTegic.value.DoubleValue
-26.696

@<SCITEGIC>MOL_PROPERTY
U
SciTegic.value.DoubleValue
25.727

@<SCITEGIC>MOL_PROPERTY
W
SciTegic.value.DoubleValue
-52.424

@<SCITEGIC>MOL_PROPERTY
W(PB)
SciTegic.value.DoubleValue
-54.885

@<SCITEGIC>MOL_PROPERTY
W(SA)
SciTegic.value.DoubleValue
2.461

@<SCITEGIC>MOL_PROPERTY
Valence
SciTegic.value.DoubleValue
4.631

@<SCITEGIC>MOL_PROPERTY
Coulomb
SciTegic.value.DoubleValue
19.868

@<SCITEGIC>MOL_PROPERTY
VdW
SciTegic.value.DoubleValue
1.228

@<SCITEGIC>MOL_PROPERTY
VdW6
SciTegic.value.DoubleValue
-10.252

@<SCITEGIC>MOL_PROPERTY
VdW12
SciTegic.value.DoubleValue
11.480

@<SCITEGIC>MOL_PROPERTY
Bond
SciTegic.value.DoubleValue
0.304

@<SCITEGIC>MOL_PROPERTY
Angle
SciTegic.value.DoubleValue
1.851

@<SCITEGIC>MOL_PROPERTY
Pdih
SciTegic.value.DoubleValue
2.476

@<SCITEGIC>MOL_PROPERTY
Idih
SciTegic.value.DoubleValue
0.000

@<SCITEGIC>MOL_PROPERTY
Tether
SciTegic.value.DoubleValue
0.000

@<TRIPOS>MOLECULE
guest-s15_vm2.mol2 : vm2 ligand conformer 47
          29          28           1
SMALL
USER_CHARGES
 
@<TRIPOS>ATOM
       1    C1      19.443189   17.936947   20.146878 C.3        1 MOL1        -0.2426
       2    H1      18.971884   17.567269   21.066086 H          1 MOL1         0.0959
       3    H2      18.657865   18.343200   19.496363 H          1 MOL1         0.0959
       4    H3      19.891215   17.075215   19.635485 H          1 MOL1         0.0959
       5    C2      20.518190   19.004276   20.452176 C.3        1 MOL1        -0.1410
       6    H4      21.042024   19.255429   19.519356 H          1 MOL1         0.0948
       7    H5      21.281007   18.581808   21.119708 H          1 MOL1         0.0948
       8    C3      19.938239   20.307923   21.057835 C.3        1 MOL1        -0.1435
       9    H6      20.760105   21.018940   21.219374 H          1 MOL1         0.0948
      10    H7      19.275518   20.777930   20.318243 H          1 MOL1         0.0948
      11    C4      19.155513   20.132697   22.384883 C.3        1 MOL1        -0.1435
      12    H8      18.264334   19.514099   22.214912 H          1 MOL1         0.0948
      13    H9      18.783695   21.118109   22.697647 H          1 MOL1         0.0948
      14    C5      20.003611   19.526207   23.528456 C.3        1 MOL1        -0.1435
      15    H10     20.323017   18.515540   23.246476 H          1 MOL1         0.0948
      16    H11     20.913921   20.125540   23.667413 H          1 MOL1         0.0948
      17    C6      19.213329   19.469626   24.858870 C.3        1 MOL1        -0.1500
      18    H12     18.334087   18.822596   24.739718 H          1 MOL1         0.0948
      19    H13     18.832082   20.474800   25.082295 H          1 MOL1         0.0948
      20    C7      20.054355   18.987851   26.063047 C.3        1 MOL1         0.1162
      21    H14     20.945079   19.619629   26.134390 H          1 MOL1         0.0910
      22    C8      20.505731   17.524367   25.908343 C.3        1 MOL1        -0.2491
      23    H15     19.646524   16.856917   25.766975 H          1 MOL1         0.0959
      24    H16     21.180275   17.402915   25.053015 H          1 MOL1         0.0959
      25    H17     21.051191   17.192170   26.800234 H          1 MOL1         0.0959
      26    N1      19.303843   19.166106   27.353511 N.4        1 MOL1        -0.5987
      27    H18     19.030851   20.142394   27.499226 H          1 MOL1         0.3605
      28    H19     19.871652   18.885419   28.158195 H          1 MOL1         0.3605
      29    H20     18.449908   18.601962   27.370492 H          1 MOL1         0.3605
@<TRIPOS>BOND
    1     1     2    1
    2     1     3    1
    3     1     4    1
    4     1     5    1
    5     5     6    1
    6     5     7    1
    7     5     8    1
    8     8     9    1
    9     8    10    1
   10     8    11    1
   11    11    12    1
   12    11    13    1
   13    11    14    1
   14    14    15    1
   15    14    16    1
   16    14    17    1
   17    17    18    1
   18    17    19    1
   19    17    20    1
   20    20    21    1
   21    20    22    1
   22    22    23    1
   23    22    24    1
   24    22    25    1
   25    20    26    1
   26    26    27    1
   27    26    28    1
   28    26    29    1
@<TRIPOS>SUBSTRUCTURE
       1 MOL1            1 RESIDUE      1      MOL     
@<SCITEGIC>MOL_PROPERTY
VM2 Rank
SciTegic.value.IntegerValue
47

@<SCITEGIC>MOL_PROPERTY
Conf_Id
SciTegic.value.IntegerValue
1600

@<SCITEGIC>MOL_PROPERTY
Probability
SciTegic.value.DoubleValue
0.56

@<SCITEGIC>MOL_PROPERTY
Sum Probability
SciTegic.value.DoubleValue
89.09

@<SCITEGIC>MOL_PROPERTY
Delta G
SciTegic.value.DoubleValue
1.738

@<SCITEGIC>MOL_PROPERTY
G
SciTegic.value.DoubleValue
35.440

@<SCITEGIC>MOL_PROPERTY
E
SciTegic.value.DoubleValue
-2.396

@<SCITEGIC>MOL_PROPERTY
-TS
SciTegic.value.DoubleValue
37.836

@<SCITEGIC>MOL_PROPERTY
U+W
SciTegic.value.DoubleValue
-26.541

@<SCITEGIC>MOL_PROPERTY
U
SciTegic.value.DoubleValue
25.494

@<SCITEGIC>MOL_PROPERTY
W
SciTegic.value.DoubleValue
-52.034

@<SCITEGIC>MOL_PROPERTY
W(PB)
SciTegic.value.DoubleValue
-54.507

@<SCITEGIC>MOL_PROPERTY
W(SA)
SciTegic.value.DoubleValue
2.472

@<SCITEGIC>MOL_PROPERTY
Valence
SciTegic.value.DoubleValue
4.663

@<SCITEGIC>MOL_PROPERTY
Coulomb
SciTegic.value.DoubleValue
19.570

@<SCITEGIC>MOL_PROPERTY
VdW
SciTegic.value.DoubleValue
1.262

@<SCITEGIC>MOL_PROPERTY
VdW6
SciTegic.value.DoubleValue
-9.758

@<SCITEGIC>MOL_PROPERTY
VdW12
SciTegic.value.DoubleValue
11.019

@<SCITEGIC>MOL_PROPERTY
Bond
SciTegic.value.DoubleValue
0.281

@<SCITEGIC>MOL_PROPERTY
Angle
SciTegic.value.DoubleValue
1.806

@<SCITEGIC>MOL_PROPERTY
Pdih
SciTegic.value.DoubleValue
2.576

@<SCITEGIC>MOL_PROPERTY
Idih
SciTegic.value.DoubleValue
0.000

@<SCITEGIC>MOL_PROPERTY
Tether
SciTegic.value.DoubleValue
0.000

@<TRIPOS>MOLECULE
guest-s15_vm2.mol2 : vm2 ligand conformer 48
          29          28           1
SMALL
USER_CHARGES
 
@<TRIPOS>ATOM
       1    C1      19.736832   20.242755   19.595555 C.3        1 MOL1        -0.2426
       2    H1      18.776760   20.600340   19.987961 H          1 MOL1         0.0959
       3    H2      20.523111   20.933044   19.927635 H          1 MOL1         0.0959
       4    H3      19.685567   20.293787   18.500256 H          1 MOL1         0.0959
       5    C2      20.034940   18.798084   20.056452 C.3        1 MOL1        -0.1410
       6    H4      20.942213   18.443487   19.547677 H          1 MOL1         0.0948
       7    H5      19.221890   18.132381   19.734750 H          1 MOL1         0.0948
       8    C3      20.240772   18.672546   21.585152 C.3        1 MOL1        -0.1435
       9    H6      20.546007   17.642028   21.813035 H          1 MOL1         0.0948
      10    H7      21.074829   19.318848   21.888398 H          1 MOL1         0.0948
      11    C4      18.972324   19.018874   22.405107 C.3        1 MOL1        -0.1435
      12    H8      18.120463   18.454352   22.001698 H          1 MOL1         0.0948
      13    H9      18.724571   20.081763   22.284690 H          1 MOL1         0.0948
      14    C5      19.106177   18.694916   23.913275 C.3        1 MOL1        -0.1435
      15    H10     18.131432   18.867794   24.387706 H          1 MOL1         0.0948
      16    H11     19.324169   17.625347   24.032257 H          1 MOL1         0.0948
      17    C6      20.191172   19.544876   24.629166 C.3        1 MOL1        -0.1500
      18    H12     20.019241   20.607290   24.412422 H          1 MOL1         0.0948
      19    H13     21.179186   19.306614   24.215888 H          1 MOL1         0.0948
      20    C7      20.251262   19.361456   26.164003 C.3        1 MOL1         0.1162
      21    H14     21.041673   20.018847   26.539298 H          1 MOL1         0.0910
      22    C8      20.617208   17.920288   26.559379 C.3        1 MOL1        -0.2491
      23    H15     20.783326   17.849771   27.641332 H          1 MOL1         0.0959
      24    H16     19.821491   17.213361   26.295860 H          1 MOL1         0.0959
      25    H17     21.540302   17.601414   26.059580 H          1 MOL1         0.0959
      26    N1      18.985313   19.802204   26.845911 N.4        1 MOL1        -0.5987
      27    H18     18.757500   20.775146   26.621912 H          1 MOL1         0.3605
      28    H19     19.065582   19.733137   27.864451 H          1 MOL1         0.3605
      29    H20     18.189879   19.225598   26.560846 H          1 MOL1         0.3605
@<TRIPOS>BOND
    1     1     2    1
    2     1     3    1
    3     1     4    1
    4     1     5    1
    5     5     6    1
    6     5     7    1
    7     5     8    1
    8     8     9    1
    9     8    10    1
   10     8    11    1
   11    11    12    1
   12    11    13    1
   13    11    14    1
   14    14    15    1
   15    14    16    1
   16    14    17    1
   17    17    18    1
   18    17    19    1
   19    17    20    1
   20    20    21    1
   21    20    22    1
   22    22    23    1
   23    22    24    1
   24    22    25    1
   25    20    26    1
   26    26    27    1
   27    26    28    1
   28    26    29    1
@<TRIPOS>SUBSTRUCTURE
       1 MOL1            1 RESIDUE      1      MOL     
@<SCITEGIC>MOL_PROPERTY
VM2 Rank
SciTegic.value.IntegerValue
48

@<SCITEGIC>MOL_PROPERTY
Conf_Id
SciTegic.value.IntegerValue
1363

@<SCITEGIC>MOL_PROPERTY
Probability
SciTegic.value.DoubleValue
0.56

@<SCITEGIC>MOL_PROPERTY
Sum Probability
SciTegic.value.DoubleValue
89.65

@<SCITEGIC>MOL_PROPERTY
Delta G
SciTegic.value.DoubleValue
1.746

@<SCITEGIC>MOL_PROPERTY
G
SciTegic.value.DoubleValue
35.448

@<SCITEGIC>MOL_PROPERTY
E
SciTegic.value.DoubleValue
-2.331

@<SCITEGIC>MOL_PROPERTY
-TS
SciTegic.value.DoubleValue
37.779

@<SCITEGIC>MOL_PROPERTY
U+W
SciTegic.value.DoubleValue
-26.476

@<SCITEGIC>MOL_PROPERTY
U
SciTegic.value.DoubleValue
25.725

@<SCITEGIC>MOL_PROPERTY
W
SciTegic.value.DoubleValue
-52.201

@<SCITEGIC>MOL_PROPERTY
W(PB)
SciTegic.value.DoubleValue
-54.669

@<SCITEGIC>MOL_PROPERTY
W(SA)
SciTegic.value.DoubleValue
2.468

@<SCITEGIC>MOL_PROPERTY
Valence
SciTegic.value.DoubleValue
4.677

@<SCITEGIC>MOL_PROPERTY
Coulomb
SciTegic.value.DoubleValue
19.669

@<SCITEGIC>MOL_PROPERTY
VdW
SciTegic.value.DoubleValue
1.379

@<SCITEGIC>MOL_PROPERTY
VdW6
SciTegic.value.DoubleValue
-9.934

@<SCITEGIC>MOL_PROPERTY
VdW12
SciTegic.value.DoubleValue
11.313

@<SCITEGIC>MOL_PROPERTY
Bond
SciTegic.value.DoubleValue
0.305

@<SCITEGIC>MOL_PROPERTY
Angle
SciTegic.value.DoubleValue
1.629

@<SCITEGIC>MOL_PROPERTY
Pdih
SciTegic.value.DoubleValue
2.742

@<SCITEGIC>MOL_PROPERTY
Idih
SciTegic.value.DoubleValue
0.000

@<SCITEGIC>MOL_PROPERTY
Tether
SciTegic.value.DoubleValue
0.000

@<TRIPOS>MOLECULE
guest-s15_vm2.mol2 : vm2 ligand conformer 49
          29          28           1
SMALL
USER_CHARGES
 
@<TRIPOS>ATOM
       1    C1      18.725297   18.969578   19.590647 C.3        1 MOL1        -0.2426
       2    H1      18.625867   19.011296   18.498269 H          1 MOL1         0.0959
       3    H2      18.829140   17.914444   19.872632 H          1 MOL1         0.0959
       4    H3      17.794035   19.352702   20.027663 H          1 MOL1         0.0959
       5    C2      19.941029   19.802845   20.055453 C.3        1 MOL1        -0.1410
       6    H4      19.848410   20.820977   19.652248 H          1 MOL1         0.0948
       7    H5      20.861824   19.384496   19.625527 H          1 MOL1         0.0948
       8    C3      20.073260   19.887704   21.595083 C.3        1 MOL1        -0.1435
       9    H6      20.895807   20.574510   21.837516 H          1 MOL1         0.0948
      10    H7      19.160347   20.336607   22.007461 H          1 MOL1         0.0948
      11    C4      20.343858   18.515756   22.263169 C.3        1 MOL1        -0.1435
      12    H8      21.178067   18.025132   21.743055 H          1 MOL1         0.0948
      13    H9      19.472970   17.858338   22.140466 H          1 MOL1         0.0948
      14    C5      20.697521   18.617131   23.767583 C.3        1 MOL1        -0.1435
      15    H10     21.003126   17.619714   24.108375 H          1 MOL1         0.0948
      16    H11     21.571657   19.270143   23.896856 H          1 MOL1         0.0948
      17    C6      19.525965   19.130728   24.644618 C.3        1 MOL1        -0.1500
      18    H12     18.656360   18.471060   24.524908 H          1 MOL1         0.0948
      19    H13     19.218461   20.120307   24.285680 H          1 MOL1         0.0948
      20    C7      19.879888   19.257241   26.144331 C.3        1 MOL1         0.1162
      21    H14     20.783223   19.868500   26.233602 H          1 MOL1         0.0910
      22    C8      20.149196   17.889576   26.797593 C.3        1 MOL1        -0.2491
      23    H15     19.293040   17.214871   26.673183 H          1 MOL1         0.0959
      24    H16     21.033358   17.406996   26.365866 H          1 MOL1         0.0959
      25    H17     20.337045   18.005431   27.872145 H          1 MOL1         0.0959
      26    N1      18.799986   19.985441   26.895523 N.4        1 MOL1        -0.5987
      27    H18     19.047191   20.106277   27.881939 H          1 MOL1         0.3605
      28    H19     17.913054   19.475456   26.863197 H          1 MOL1         0.3605
      29    H20     18.633387   20.918256   26.506993 H          1 MOL1         0.3605
@<TRIPOS>BOND
    1     1     2    1
    2     1     3    1
    3     1     4    1
    4     1     5    1
    5     5     6    1
    6     5     7    1
    7     5     8    1
    8     8     9    1
    9     8    10    1
   10     8    11    1
   11    11    12    1
   12    11    13    1
   13    11    14    1
   14    14    15    1
   15    14    16    1
   16    14    17    1
   17    17    18    1
   18    17    19    1
   19    17    20    1
   20    20    21    1
   21    20    22    1
   22    22    23    1
   23    22    24    1
   24    22    25    1
   25    20    26    1
   26    26    27    1
   27    26    28    1
   28    26    29    1
@<TRIPOS>SUBSTRUCTURE
       1 MOL1            1 RESIDUE      1      MOL     
@<SCITEGIC>MOL_PROPERTY
VM2 Rank
SciTegic.value.IntegerValue
49

@<SCITEGIC>MOL_PROPERTY
Conf_Id
SciTegic.value.IntegerValue
1054

@<SCITEGIC>MOL_PROPERTY
Probability
SciTegic.value.DoubleValue
0.53

@<SCITEGIC>MOL_PROPERTY
Sum Probability
SciTegic.value.DoubleValue
90.18

@<SCITEGIC>MOL_PROPERTY
Delta G
SciTegic.value.DoubleValue
1.769

@<SCITEGIC>MOL_PROPERTY
G
SciTegic.value.DoubleValue
35.471

@<SCITEGIC>MOL_PROPERTY
E
SciTegic.value.DoubleValue
-2.099

@<SCITEGIC>MOL_PROPERTY
-TS
SciTegic.value.DoubleValue
37.570

@<SCITEGIC>MOL_PROPERTY
U+W
SciTegic.value.DoubleValue
-26.243

@<SCITEGIC>MOL_PROPERTY
U
SciTegic.value.DoubleValue
25.974

@<SCITEGIC>MOL_PROPERTY
W
SciTegic.value.DoubleValue
-52.217

@<SCITEGIC>MOL_PROPERTY
W(PB)
SciTegic.value.DoubleValue
-54.709

@<SCITEGIC>MOL_PROPERTY
W(SA)
SciTegic.value.DoubleValue
2.492

@<SCITEGIC>MOL_PROPERTY
Valence
SciTegic.value.DoubleValue
4.812

@<SCITEGIC>MOL_PROPERTY
Coulomb
SciTegic.value.DoubleValue
19.700

@<SCITEGIC>MOL_PROPERTY
VdW
SciTegic.value.DoubleValue
1.463

@<SCITEGIC>MOL_PROPERTY
VdW6
SciTegic.value.DoubleValue
-9.391

@<SCITEGIC>MOL_PROPERTY
VdW12
SciTegic.value.DoubleValue
10.854

@<SCITEGIC>MOL_PROPERTY
Bond
SciTegic.value.DoubleValue
0.285

@<SCITEGIC>MOL_PROPERTY
Angle
SciTegic.value.DoubleValue
1.671

@<SCITEGIC>MOL_PROPERTY
Pdih
SciTegic.value.DoubleValue
2.856

@<SCITEGIC>MOL_PROPERTY
Idih
SciTegic.value.DoubleValue
0.000

@<SCITEGIC>MOL_PROPERTY
Tether
SciTegic.value.DoubleValue
0.000

@<TRIPOS>MOLECULE
guest-s15_vm2.mol2 : vm2 ligand conformer 50
          29          28           1
SMALL
USER_CHARGES
 
@<TRIPOS>ATOM
       1    C1      20.140201   19.162356   19.204012 C.3        1 MOL1        -0.2426
       2    H1      19.813914   19.402877   18.183906 H          1 MOL1         0.0959
       3    H2      20.955494   19.850365   19.459232 H          1 MOL1         0.0959
       4    H3      20.541263   18.140545   19.195846 H          1 MOL1         0.0959
       5    C2      18.958799   19.287851   20.192670 C.3        1 MOL1        -0.1410
       6    H4      18.123181   18.677742   19.822154 H          1 MOL1         0.0948
       7    H5      18.597945   20.325756   20.208631 H          1 MOL1         0.0948
       8    C3      19.305193   18.831570   21.630675 C.3        1 MOL1        -0.1435
       9    H6      18.377674   18.827944   22.217380 H          1 MOL1         0.0948
      10    H7      19.663364   17.793173   21.609490 H          1 MOL1         0.0948
      11    C4      20.355373   19.733512   22.327630 C.3        1 MOL1        -0.1435
      12    H8      19.996417   20.771608   22.349844 H          1 MOL1         0.0948
      13    H9      21.281015   19.739369   21.737900 H          1 MOL1         0.0948
      14    C5      20.706835   19.274313   23.764246 C.3        1 MOL1        -0.1435
      15    H10     21.079004   18.241875   23.729234 H          1 MOL1         0.0948
      16    H11     21.537413   19.892041   24.133005 H          1 MOL1         0.0948
      17    C6      19.520229   19.383044   24.756481 C.3        1 MOL1        -0.1500
      18    H12     18.735828   18.664406   24.487763 H          1 MOL1         0.0948
      19    H13     19.075773   20.382654   24.662985 H          1 MOL1         0.0948
      20    C7      19.926631   19.163720   26.231432 C.3        1 MOL1         0.1162
      21    H14     20.732317   19.863750   26.473170 H          1 MOL1         0.0910
      22    C8      20.432252   17.732320   26.485487 C.3        1 MOL1        -0.2491
      23    H15     20.668638   17.588829   27.547027 H          1 MOL1         0.0959
      24    H16     19.677353   16.988576   26.201443 H          1 MOL1         0.0959
      25    H17     21.347768   17.526682   25.918829 H          1 MOL1         0.0959
      26    N1      18.790487   19.487314   27.161367 N.4        1 MOL1        -0.5987
      27    H18     19.067829   19.381384   28.141460 H          1 MOL1         0.3605
      28    H19     17.989428   18.870316   27.002204 H          1 MOL1         0.3605
      29    H20     18.466058   20.451020   27.039252 H          1 MOL1         0.3605
@<TRIPOS>BOND
    1     1     2    1
    2     1     3    1
    3     1     4    1
    4     1     5    1
    5     5     6    1
    6     5     7    1
    7     5     8    1
    8     8     9    1
    9     8    10    1
   10     8    11    1
   11    11    12    1
   12    11    13    1
   13    11    14    1
   14    14    15    1
   15    14    16    1
   16    14    17    1
   17    17    18    1
   18    17    19    1
   19    17    20    1
   20    20    21    1
   21    20    22    1
   22    22    23    1
   23    22    24    1
   24    22    25    1
   25    20    26    1
   26    26    27    1
   27    26    28    1
   28    26    29    1
@<TRIPOS>SUBSTRUCTURE
       1 MOL1            1 RESIDUE      1      MOL     
@<SCITEGIC>MOL_PROPERTY
VM2 Rank
SciTegic.value.IntegerValue
50

@<SCITEGIC>MOL_PROPERTY
Conf_Id
SciTegic.value.IntegerValue
1039

@<SCITEGIC>MOL_PROPERTY
Probability
SciTegic.value.DoubleValue
0.51

@<SCITEGIC>MOL_PROPERTY
Sum Probability
SciTegic.value.DoubleValue
90.69

@<SCITEGIC>MOL_PROPERTY
Delta G
SciTegic.value.DoubleValue
1.791

@<SCITEGIC>MOL_PROPERTY
G
SciTegic.value.DoubleValue
35.493

@<SCITEGIC>MOL_PROPERTY
E
SciTegic.value.DoubleValue
-2.104

@<SCITEGIC>MOL_PROPERTY
-TS
SciTegic.value.DoubleValue
37.597

@<SCITEGIC>MOL_PROPERTY
U+W
SciTegic.value.DoubleValue
-26.249

@<SCITEGIC>MOL_PROPERTY
U
SciTegic.value.DoubleValue
25.821

@<SCITEGIC>MOL_PROPERTY
W
SciTegic.value.DoubleValue
-52.070

@<SCITEGIC>MOL_PROPERTY
W(PB)
SciTegic.value.DoubleValue
-54.582

@<SCITEGIC>MOL_PROPERTY
W(SA)
SciTegic.value.DoubleValue
2.512

@<SCITEGIC>MOL_PROPERTY
Valence
SciTegic.value.DoubleValue
4.779

@<SCITEGIC>MOL_PROPERTY
Coulomb
SciTegic.value.DoubleValue
19.614

@<SCITEGIC>MOL_PROPERTY
VdW
SciTegic.value.DoubleValue
1.428

@<SCITEGIC>MOL_PROPERTY
VdW6
SciTegic.value.DoubleValue
-9.390

@<SCITEGIC>MOL_PROPERTY
VdW12
SciTegic.value.DoubleValue
10.818

@<SCITEGIC>MOL_PROPERTY
Bond
SciTegic.value.DoubleValue
0.283

@<SCITEGIC>MOL_PROPERTY
Angle
SciTegic.value.DoubleValue
1.640

@<SCITEGIC>MOL_PROPERTY
Pdih
SciTegic.value.DoubleValue
2.857

@<SCITEGIC>MOL_PROPERTY
Idih
SciTegic.value.DoubleValue
0.000

@<SCITEGIC>MOL_PROPERTY
Tether
SciTegic.value.DoubleValue
0.000

@<TRIPOS>MOLECULE
guest-s15_vm2.mol2 : vm2 ligand conformer 51
          29          28           1
SMALL
USER_CHARGES
 
@<TRIPOS>ATOM
       1    C1      19.327599   20.625964   19.868354 C.3        1 MOL1        -0.2426
       2    H1      19.905423   21.508159   19.563622 H          1 MOL1         0.0959
       3    H2      19.121821   20.030970   18.968995 H          1 MOL1         0.0959
       4    H3      18.369147   20.974443   20.274730 H          1 MOL1         0.0959
       5    C2      20.105476   19.799974   20.914485 C.3        1 MOL1        -0.1410
       6    H4      20.326538   20.438998   21.779735 H          1 MOL1         0.0948
       7    H5      21.071037   19.490608   20.490697 H          1 MOL1         0.0948
       8    C3      19.308605   18.552512   21.363029 C.3        1 MOL1        -0.1435
       9    H6      18.361756   18.862202   21.824330 H          1 MOL1         0.0948
      10    H7      19.031483   17.968564   20.474544 H          1 MOL1         0.0948
      11    C4      20.093723   17.626071   22.327657 C.3        1 MOL1        -0.1435
      12    H8      20.963487   17.217518   21.794923 H          1 MOL1         0.0948
      13    H9      19.462892   16.761923   22.577580 H          1 MOL1         0.0948
      14    C5      20.584451   18.286862   23.642390 C.3        1 MOL1        -0.1435
      15    H10     21.138282   17.527536   24.208875 H          1 MOL1         0.0948
      16    H11     21.307309   19.081718   23.416034 H          1 MOL1         0.0948
      17    C6      19.437132   18.854927   24.517638 C.3        1 MOL1        -0.1500
      18    H12     18.722055   18.056479   24.755898 H          1 MOL1         0.0948
      19    H13     18.886006   19.605604   23.938265 H          1 MOL1         0.0948
      20    C7      19.923321   19.525396   25.823086 C.3        1 MOL1         0.1162
      21    H14     20.679253   20.273164   25.564216 H          1 MOL1         0.0910
      22    C8      20.550849   18.514249   26.799568 C.3        1 MOL1        -0.2491
      23    H15     19.850157   17.703876   27.036275 H          1 MOL1         0.0959
      24    H16     21.462990   18.070404   26.384855 H          1 MOL1         0.0959
      25    H17     20.830005   19.007146   27.738976 H          1 MOL1         0.0959
      26    N1      18.804844   20.270044   26.497791 N.4        1 MOL1        -0.5987
      27    H18     18.399773   20.981273   25.882249 H          1 MOL1         0.3605
      28    H19     19.130503   20.748306   27.342734 H          1 MOL1         0.3605
      29    H20     18.049705   19.637750   26.776619 H          1 MOL1         0.3605
@<TRIPOS>BOND
    1     1     2    1
    2     1     3    1
    3     1     4    1
    4     1     5    1
    5     5     6    1
    6     5     7    1
    7     5     8    1
    8     8     9    1
    9     8    10    1
   10     8    11    1
   11    11    12    1
   12    11    13    1
   13    11    14    1
   14    14    15    1
   15    14    16    1
   16    14    17    1
   17    17    18    1
   18    17    19    1
   19    17    20    1
   20    20    21    1
   21    20    22    1
   22    22    23    1
   23    22    24    1
   24    22    25    1
   25    20    26    1
   26    26    27    1
   27    26    28    1
   28    26    29    1
@<TRIPOS>SUBSTRUCTURE
       1 MOL1            1 RESIDUE      1      MOL     
@<SCITEGIC>MOL_PROPERTY
VM2 Rank
SciTegic.value.IntegerValue
51

@<SCITEGIC>MOL_PROPERTY
Conf_Id
SciTegic.value.IntegerValue
201

@<SCITEGIC>MOL_PROPERTY
Probability
SciTegic.value.DoubleValue
0.47

@<SCITEGIC>MOL_PROPERTY
Sum Probability
SciTegic.value.DoubleValue
91.17

@<SCITEGIC>MOL_PROPERTY
Delta G
SciTegic.value.DoubleValue
1.843

@<SCITEGIC>MOL_PROPERTY
G
SciTegic.value.DoubleValue
35.545

@<SCITEGIC>MOL_PROPERTY
E
SciTegic.value.DoubleValue
-2.257

@<SCITEGIC>MOL_PROPERTY
-TS
SciTegic.value.DoubleValue
37.802

@<SCITEGIC>MOL_PROPERTY
U+W
SciTegic.value.DoubleValue
-26.401

@<SCITEGIC>MOL_PROPERTY
U
SciTegic.value.DoubleValue
26.111

@<SCITEGIC>MOL_PROPERTY
W
SciTegic.value.DoubleValue
-52.513

@<SCITEGIC>MOL_PROPERTY
W(PB)
SciTegic.value.DoubleValue
-54.997

@<SCITEGIC>MOL_PROPERTY
W(SA)
SciTegic.value.DoubleValue
2.485

@<SCITEGIC>MOL_PROPERTY
Valence
SciTegic.value.DoubleValue
4.789

@<SCITEGIC>MOL_PROPERTY
Coulomb
SciTegic.value.DoubleValue
20.049

@<SCITEGIC>MOL_PROPERTY
VdW
SciTegic.value.DoubleValue
1.273

@<SCITEGIC>MOL_PROPERTY
VdW6
SciTegic.value.DoubleValue
-9.803

@<SCITEGIC>MOL_PROPERTY
VdW12
SciTegic.value.DoubleValue
11.076

@<SCITEGIC>MOL_PROPERTY
Bond
SciTegic.value.DoubleValue
0.295

@<SCITEGIC>MOL_PROPERTY
Angle
SciTegic.value.DoubleValue
1.940

@<SCITEGIC>MOL_PROPERTY
Pdih
SciTegic.value.DoubleValue
2.553

@<SCITEGIC>MOL_PROPERTY
Idih
SciTegic.value.DoubleValue
0.000

@<SCITEGIC>MOL_PROPERTY
Tether
SciTegic.value.DoubleValue
0.000

@<TRIPOS>MOLECULE
guest-s15_vm2.mol2 : vm2 ligand conformer 52
          29          28           1
SMALL
USER_CHARGES
 
@<TRIPOS>ATOM
       1    C1      20.173630   19.313109   19.180249 C.3        1 MOL1        -0.2426
       2    H1      20.824898   20.196019   19.216845 H          1 MOL1         0.0959
       3    H2      20.779493   18.428334   19.411066 H          1 MOL1         0.0959
       4    H3      19.812903   19.204849   18.149187 H          1 MOL1         0.0959
       5    C2      18.983914   19.459161   20.156084 C.3        1 MOL1        -0.1410
       6    H4      18.367596   18.549735   20.127428 H          1 MOL1         0.0948
       7    H5      18.339848   20.277820   19.805710 H          1 MOL1         0.0948
       8    C3      19.412293   19.755958   21.613723 C.3        1 MOL1        -0.1435
       9    H6      20.027906   20.665626   21.636403 H          1 MOL1         0.0948
      10    H7      18.507136   19.979626   22.192011 H          1 MOL1         0.0948
      11    C4      20.181202   18.586578   22.280381 C.3        1 MOL1        -0.1435
      12    H8      21.079685   18.361668   21.691542 H          1 MOL1         0.0948
      13    H9      19.564663   17.677426   22.262322 H          1 MOL1         0.0948
      14    C5      20.627850   18.882911   23.733718 C.3        1 MOL1        -0.1435
      15    H10     21.306346   18.078513   24.045064 H          1 MOL1         0.0948
      16    H11     21.216546   19.810392   23.755794 H          1 MOL1         0.0948
      17    C6      19.450331   18.984110   24.738418 C.3        1 MOL1        -0.1500
      18    H12     18.869769   18.052212   24.724178 H          1 MOL1         0.0948
      19    H13     18.769727   19.780243   24.414424 H          1 MOL1         0.0948
      20    C7      19.892897   19.298125   26.186237 C.3        1 MOL1         0.1162
      21    H14     20.520039   20.194752   26.166787 H          1 MOL1         0.0910
      22    C8      20.703816   18.148429   26.811120 C.3        1 MOL1        -0.2491
      23    H15     20.139661   17.207687   26.790096 H          1 MOL1         0.0959
      24    H16     21.651337   17.993519   26.282721 H          1 MOL1         0.0959
      25    H17     20.950169   18.373450   27.856130 H          1 MOL1         0.0959
      26    N1      18.710067   19.627619   27.054070 N.4        1 MOL1        -0.5987
      27    H18     18.178877   20.420601   26.682753 H          1 MOL1         0.3605
      28    H19     19.000919   19.874391   28.004458 H          1 MOL1         0.3605
      29    H20     18.067703   18.834054   27.127618 H          1 MOL1         0.3605
@<TRIPOS>BOND
    1     1     2    1
    2     1     3    1
    3     1     4    1
    4     1     5    1
    5     5     6    1
    6     5     7    1
    7     5     8    1
    8     8     9    1
    9     8    10    1
   10     8    11    1
   11    11    12    1
   12    11    13    1
   13    11    14    1
   14    14    15    1
   15    14    16    1
   16    14    17    1
   17    17    18    1
   18    17    19    1
   19    17    20    1
   20    20    21    1
   21    20    22    1
   22    22    23    1
   23    22    24    1
   24    22    25    1
   25    20    26    1
   26    26    27    1
   27    26    28    1
   28    26    29    1
@<TRIPOS>SUBSTRUCTURE
       1 MOL1            1 RESIDUE      1      MOL     
@<SCITEGIC>MOL_PROPERTY
VM2 Rank
SciTegic.value.IntegerValue
52

@<SCITEGIC>MOL_PROPERTY
Conf_Id
SciTegic.value.IntegerValue
113

@<SCITEGIC>MOL_PROPERTY
Probability
SciTegic.value.DoubleValue
0.47

@<SCITEGIC>MOL_PROPERTY
Sum Probability
SciTegic.value.DoubleValue
91.64

@<SCITEGIC>MOL_PROPERTY
Delta G
SciTegic.value.DoubleValue
1.843

@<SCITEGIC>MOL_PROPERTY
G
SciTegic.value.DoubleValue
35.545

@<SCITEGIC>MOL_PROPERTY
E
SciTegic.value.DoubleValue
-1.907

@<SCITEGIC>MOL_PROPERTY
-TS
SciTegic.value.DoubleValue
37.452

@<SCITEGIC>MOL_PROPERTY
U+W
SciTegic.value.DoubleValue
-26.051

@<SCITEGIC>MOL_PROPERTY
U
SciTegic.value.DoubleValue
26.145

@<SCITEGIC>MOL_PROPERTY
W
SciTegic.value.DoubleValue
-52.196

@<SCITEGIC>MOL_PROPERTY
W(PB)
SciTegic.value.DoubleValue
-54.704

@<SCITEGIC>MOL_PROPERTY
W(SA)
SciTegic.value.DoubleValue
2.508

@<SCITEGIC>MOL_PROPERTY
Valence
SciTegic.value.DoubleValue
4.933

@<SCITEGIC>MOL_PROPERTY
Coulomb
SciTegic.value.DoubleValue
19.671

@<SCITEGIC>MOL_PROPERTY
VdW
SciTegic.value.DoubleValue
1.541

@<SCITEGIC>MOL_PROPERTY
VdW6
SciTegic.value.DoubleValue
-9.288

@<SCITEGIC>MOL_PROPERTY
VdW12
SciTegic.value.DoubleValue
10.829

@<SCITEGIC>MOL_PROPERTY
Bond
SciTegic.value.DoubleValue
0.296

@<SCITEGIC>MOL_PROPERTY
Angle
SciTegic.value.DoubleValue
1.772

@<SCITEGIC>MOL_PROPERTY
Pdih
SciTegic.value.DoubleValue
2.865

@<SCITEGIC>MOL_PROPERTY
Idih
SciTegic.value.DoubleValue
0.000

@<SCITEGIC>MOL_PROPERTY
Tether
SciTegic.value.DoubleValue
0.000

@<TRIPOS>MOLECULE
guest-s15_vm2.mol2 : vm2 ligand conformer 53
          29          28           1
SMALL
USER_CHARGES
 
@<TRIPOS>ATOM
       1    C1      19.004108   20.470603   20.378035 C.3        1 MOL1        -0.2426
       2    H1      19.237434   21.030701   21.292115 H          1 MOL1         0.0959
       3    H2      19.774232   20.697012   19.629311 H          1 MOL1         0.0959
       4    H3      18.044709   20.844003   19.997313 H          1 MOL1         0.0959
       5    C2      18.924335   18.951524   20.650152 C.3        1 MOL1        -0.1410
       6    H4      18.574090   18.446985   19.738895 H          1 MOL1         0.0948
       7    H5      18.162339   18.751387   21.415157 H          1 MOL1         0.0948
       8    C3      20.280445   18.328062   21.068260 C.3        1 MOL1        -0.1435
       9    H6      20.142753   17.247997   21.215205 H          1 MOL1         0.0948
      10    H7      20.989296   18.429844   20.235040 H          1 MOL1         0.0948
      11    C4      20.923359   18.932133   22.343439 C.3        1 MOL1        -0.1435
      12    H8      21.173605   19.987447   22.171939 H          1 MOL1         0.0948
      13    H9      21.878979   18.420640   22.523154 H          1 MOL1         0.0948
      14    C5      20.036700   18.801627   23.604829 C.3        1 MOL1        -0.1435
      15    H10     19.109687   19.370241   23.461141 H          1 MOL1         0.0948
      16    H11     19.752982   17.749110   23.734717 H          1 MOL1         0.0948
      17    C6      20.769740   19.314570   24.871600 C.3        1 MOL1        -0.1500
      18    H12     21.097340   20.349019   24.704128 H          1 MOL1         0.0948
      19    H13     21.685802   18.728437   25.023248 H          1 MOL1         0.0948
      20    C7      19.932149   19.271576   26.171491 C.3        1 MOL1         0.1162
      21    H14     20.554792   19.680992   26.973024 H          1 MOL1         0.0910
      22    C8      19.550560   17.834453   26.566887 C.3        1 MOL1        -0.2491
      23    H15     19.078564   17.821790   27.556963 H          1 MOL1         0.0959
      24    H16     18.844958   17.391326   25.854143 H          1 MOL1         0.0959
      25    H17     20.439993   17.193956   26.614285 H          1 MOL1         0.0959
      26    N1      18.714604   20.151453   26.099308 N.4        1 MOL1        -0.5987
      27    H18     18.964208   21.120143   25.880120 H          1 MOL1         0.3605
      28    H19     18.206218   20.159801   26.988215 H          1 MOL1         0.3605
      29    H20     18.065852   19.828585   25.377262 H          1 MOL1         0.3605
@<TRIPOS>BOND
    1     1     2    1
    2     1     3    1
    3     1     4    1
    4     1     5    1
    5     5     6    1
    6     5     7    1
    7     5     8    1
    8     8     9    1
    9     8    10    1
   10     8    11    1
   11    11    12    1
   12    11    13    1
   13    11    14    1
   14    14    15    1
   15    14    16    1
   16    14    17    1
   17    17    18    1
   18    17    19    1
   19    17    20    1
   20    20    21    1
   21    20    22    1
   22    22    23    1
   23    22    24    1
   24    22    25    1
   25    20    26    1
   26    26    27    1
   27    26    28    1
   28    26    29    1
@<TRIPOS>SUBSTRUCTURE
       1 MOL1            1 RESIDUE      1      MOL     
@<SCITEGIC>MOL_PROPERTY
VM2 Rank
SciTegic.value.IntegerValue
53

@<SCITEGIC>MOL_PROPERTY
Conf_Id
SciTegic.value.IntegerValue
337

@<SCITEGIC>MOL_PROPERTY
Probability
SciTegic.value.DoubleValue
0.47

@<SCITEGIC>MOL_PROPERTY
Sum Probability
SciTegic.value.DoubleValue
92.10

@<SCITEGIC>MOL_PROPERTY
Delta G
SciTegic.value.DoubleValue
1.850

@<SCITEGIC>MOL_PROPERTY
G
SciTegic.value.DoubleValue
35.553

@<SCITEGIC>MOL_PROPERTY
E
SciTegic.value.DoubleValue
-2.418

@<SCITEGIC>MOL_PROPERTY
-TS
SciTegic.value.DoubleValue
37.971

@<SCITEGIC>MOL_PROPERTY
U+W
SciTegic.value.DoubleValue
-26.563

@<SCITEGIC>MOL_PROPERTY
U
SciTegic.value.DoubleValue
25.998

@<SCITEGIC>MOL_PROPERTY
W
SciTegic.value.DoubleValue
-52.560

@<SCITEGIC>MOL_PROPERTY
W(PB)
SciTegic.value.DoubleValue
-55.000

@<SCITEGIC>MOL_PROPERTY
W(SA)
SciTegic.value.DoubleValue
2.440

@<SCITEGIC>MOL_PROPERTY
Valence
SciTegic.value.DoubleValue
4.627

@<SCITEGIC>MOL_PROPERTY
Coulomb
SciTegic.value.DoubleValue
20.145

@<SCITEGIC>MOL_PROPERTY
VdW
SciTegic.value.DoubleValue
1.225

@<SCITEGIC>MOL_PROPERTY
VdW6
SciTegic.value.DoubleValue
-10.241

@<SCITEGIC>MOL_PROPERTY
VdW12
SciTegic.value.DoubleValue
11.467

@<SCITEGIC>MOL_PROPERTY
Bond
SciTegic.value.DoubleValue
0.303

@<SCITEGIC>MOL_PROPERTY
Angle
SciTegic.value.DoubleValue
1.847

@<SCITEGIC>MOL_PROPERTY
Pdih
SciTegic.value.DoubleValue
2.477

@<SCITEGIC>MOL_PROPERTY
Idih
SciTegic.value.DoubleValue
0.000

@<SCITEGIC>MOL_PROPERTY
Tether
SciTegic.value.DoubleValue
0.000

@<TRIPOS>MOLECULE
guest-s15_vm2.mol2 : vm2 ligand conformer 54
          29          28           1
SMALL
USER_CHARGES
 
@<TRIPOS>ATOM
       1    C1      20.895955   19.018621   19.797923 C.3        1 MOL1        -0.2426
       2    H1      20.949494   20.007358   19.323859 H          1 MOL1         0.0959
       3    H2      21.856140   18.824313   20.293394 H          1 MOL1         0.0959
       4    H3      20.768623   18.271009   19.004280 H          1 MOL1         0.0959
       5    C2      19.728593   18.948339   20.804890 C.3        1 MOL1        -0.1410
       6    H4      19.682646   17.935853   21.227378 H          1 MOL1         0.0948
       7    H5      18.780014   19.116464   20.276190 H          1 MOL1         0.0948
       8    C3      19.887707   19.991778   21.935384 C.3        1 MOL1        -0.1435
       9    H6      20.820145   19.805158   22.484208 H          1 MOL1         0.0948
      10    H7      19.996370   20.988842   21.486812 H          1 MOL1         0.0948
      11    C4      18.689315   20.027100   22.918459 C.3        1 MOL1        -0.1435
      12    H8      17.784352   20.312744   22.364721 H          1 MOL1         0.0948
      13    H9      18.854503   20.831659   23.647350 H          1 MOL1         0.0948
      14    C5      18.411598   18.697740   23.670969 C.3        1 MOL1        -0.1435
      15    H10     17.563449   18.848462   24.352076 H          1 MOL1         0.0948
      16    H11     18.074882   17.936164   22.955178 H          1 MOL1         0.0948
      17    C6      19.618802   18.137518   24.469154 C.3        1 MOL1        -0.1500
      18    H12     20.401230   17.825155   23.765655 H          1 MOL1         0.0948
      19    H13     19.306855   17.225897   24.995756 H          1 MOL1         0.0948
      20    C7      20.219003   19.134707   25.484522 C.3        1 MOL1         0.1162
      21    H14     20.520906   20.036462   24.943531 H          1 MOL1         0.0910
      22    C8      21.466623   18.534629   26.151356 C.3        1 MOL1        -0.2491
      23    H15     21.918728   19.252886   26.846389 H          1 MOL1         0.0959
      24    H16     21.218233   17.625289   26.712872 H          1 MOL1         0.0959
      25    H17     22.223578   18.276508   25.400267 H          1 MOL1         0.0959
      26    N1      19.218404   19.565567   26.521343 N.4        1 MOL1        -0.5987
      27    H18     19.619848   20.250044   27.168529 H          1 MOL1         0.3605
      28    H19     18.893094   18.770551   27.077697 H          1 MOL1         0.3605
      29    H20     18.396968   19.995504   26.087580 H          1 MOL1         0.3605
@<TRIPOS>BOND
    1     1     2    1
    2     1     3    1
    3     1     4    1
    4     1     5    1
    5     5     6    1
    6     5     7    1
    7     5     8    1
    8     8     9    1
    9     8    10    1
   10     8    11    1
   11    11    12    1
   12    11    13    1
   13    11    14    1
   14    14    15    1
   15    14    16    1
   16    14    17    1
   17    17    18    1
   18    17    19    1
   19    17    20    1
   20    20    21    1
   21    20    22    1
   22    22    23    1
   23    22    24    1
   24    22    25    1
   25    20    26    1
   26    26    27    1
   27    26    28    1
   28    26    29    1
@<TRIPOS>SUBSTRUCTURE
       1 MOL1            1 RESIDUE      1      MOL     
@<SCITEGIC>MOL_PROPERTY
VM2 Rank
SciTegic.value.IntegerValue
54

@<SCITEGIC>MOL_PROPERTY
Conf_Id
SciTegic.value.IntegerValue
1500

@<SCITEGIC>MOL_PROPERTY
Probability
SciTegic.value.DoubleValue
0.44

@<SCITEGIC>MOL_PROPERTY
Sum Probability
SciTegic.value.DoubleValue
92.54

@<SCITEGIC>MOL_PROPERTY
Delta G
SciTegic.value.DoubleValue
1.886

@<SCITEGIC>MOL_PROPERTY
G
SciTegic.value.DoubleValue
35.588

@<SCITEGIC>MOL_PROPERTY
E
SciTegic.value.DoubleValue
-2.609

@<SCITEGIC>MOL_PROPERTY
-TS
SciTegic.value.DoubleValue
38.198

@<SCITEGIC>MOL_PROPERTY
U+W
SciTegic.value.DoubleValue
-26.754

@<SCITEGIC>MOL_PROPERTY
U
SciTegic.value.DoubleValue
25.507

@<SCITEGIC>MOL_PROPERTY
W
SciTegic.value.DoubleValue
-52.260

@<SCITEGIC>MOL_PROPERTY
W(PB)
SciTegic.value.DoubleValue
-54.688

@<SCITEGIC>MOL_PROPERTY
W(SA)
SciTegic.value.DoubleValue
2.428

@<SCITEGIC>MOL_PROPERTY
Valence
SciTegic.value.DoubleValue
4.386

@<SCITEGIC>MOL_PROPERTY
Coulomb
SciTegic.value.DoubleValue
20.418

@<SCITEGIC>MOL_PROPERTY
VdW
SciTegic.value.DoubleValue
0.703

@<SCITEGIC>MOL_PROPERTY
VdW6
SciTegic.value.DoubleValue
-10.963

@<SCITEGIC>MOL_PROPERTY
VdW12
SciTegic.value.DoubleValue
11.666

@<SCITEGIC>MOL_PROPERTY
Bond
SciTegic.value.DoubleValue
0.307

@<SCITEGIC>MOL_PROPERTY
Angle
SciTegic.value.DoubleValue
1.748

@<SCITEGIC>MOL_PROPERTY
Pdih
SciTegic.value.DoubleValue
2.332

@<SCITEGIC>MOL_PROPERTY
Idih
SciTegic.value.DoubleValue
0.000

@<SCITEGIC>MOL_PROPERTY
Tether
SciTegic.value.DoubleValue
0.000

@<TRIPOS>MOLECULE
guest-s15_vm2.mol2 : vm2 ligand conformer 55
          29          28           1
SMALL
USER_CHARGES
 
@<TRIPOS>ATOM
       1    C1      20.606255   19.282652   19.516364 C.3        1 MOL1        -0.2426
       2    H1      20.895921   18.263284   19.800221 H          1 MOL1         0.0959
       3    H2      20.563080   19.320609   18.420185 H          1 MOL1         0.0959
       4    H3      21.396804   19.969487   19.845456 H          1 MOL1         0.0959
       5    C2      19.240999   19.674418   20.125448 C.3        1 MOL1        -0.1410
       6    H4      18.472898   18.958073   19.802063 H          1 MOL1         0.0948
       7    H5      18.939732   20.651272   19.722050 H          1 MOL1         0.0948
       8    C3      19.260838   19.759127   21.670612 C.3        1 MOL1        -0.1435
       9    H6      20.009922   20.500267   21.978349 H          1 MOL1         0.0948
      10    H7      18.287949   20.138557   22.012011 H          1 MOL1         0.0948
      11    C4      19.543356   18.397955   22.355351 C.3        1 MOL1        -0.1435
      12    H8      20.563830   18.064665   22.124723 H          1 MOL1         0.0948
      13    H9      18.867585   17.640303   21.935346 H          1 MOL1         0.0948
      14    C5      19.352214   18.427314   23.891719 C.3        1 MOL1        -0.1435
      15    H10     18.325937   18.742569   24.121856 H          1 MOL1         0.0948
      16    H11     19.452113   17.399547   24.263606 H          1 MOL1         0.0948
      17    C6      20.370932   19.346176   24.620159 C.3        1 MOL1        -0.1500
      18    H12     20.251025   20.378478   24.269622 H          1 MOL1         0.0948
      19    H13     21.391164   19.048661   24.344152 H          1 MOL1         0.0948
      20    C7      20.254213   19.352200   26.162795 C.3        1 MOL1         0.1162
      21    H14     20.983828   20.075301   26.540353 H          1 MOL1         0.0910
      22    C8      20.597925   17.983994   26.777271 C.3        1 MOL1        -0.2491
      23    H15     19.847805   17.225017   26.525870 H          1 MOL1         0.0959
      24    H16     21.575414   17.632385   26.424499 H          1 MOL1         0.0959
      25    H17     20.645920   18.056716   27.870708 H          1 MOL1         0.0959
      26    N1      18.909267   19.832164   26.634282 N.4        1 MOL1        -0.5987
      27    H18     18.869251   19.888713   27.655963 H          1 MOL1         0.3605
      28    H19     18.163609   19.200354   26.331962 H          1 MOL1         0.3605
      29    H20     18.693135   20.763296   26.266985 H          1 MOL1         0.3605
@<TRIPOS>BOND
    1     1     2    1
    2     1     3    1
    3     1     4    1
    4     1     5    1
    5     5     6    1
    6     5     7    1
    7     5     8    1
    8     8     9    1
    9     8    10    1
   10     8    11    1
   11    11    12    1
   12    11    13    1
   13    11    14    1
   14    14    15    1
   15    14    16    1
   16    14    17    1
   17    17    18    1
   18    17    19    1
   19    17    20    1
   20    20    21    1
   21    20    22    1
   22    22    23    1
   23    22    24    1
   24    22    25    1
   25    20    26    1
   26    26    27    1
   27    26    28    1
   28    26    29    1
@<TRIPOS>SUBSTRUCTURE
       1 MOL1            1 RESIDUE      1      MOL     
@<SCITEGIC>MOL_PROPERTY
VM2 Rank
SciTegic.value.IntegerValue
55

@<SCITEGIC>MOL_PROPERTY
Conf_Id
SciTegic.value.IntegerValue
670

@<SCITEGIC>MOL_PROPERTY
Probability
SciTegic.value.DoubleValue
0.44

@<SCITEGIC>MOL_PROPERTY
Sum Probability
SciTegic.value.DoubleValue
92.98

@<SCITEGIC>MOL_PROPERTY
Delta G
SciTegic.value.DoubleValue
1.890

@<SCITEGIC>MOL_PROPERTY
G
SciTegic.value.DoubleValue
35.592

@<SCITEGIC>MOL_PROPERTY
E
SciTegic.value.DoubleValue
-2.143

@<SCITEGIC>MOL_PROPERTY
-TS
SciTegic.value.DoubleValue
37.735

@<SCITEGIC>MOL_PROPERTY
U+W
SciTegic.value.DoubleValue
-26.287

@<SCITEGIC>MOL_PROPERTY
U
SciTegic.value.DoubleValue
25.995

@<SCITEGIC>MOL_PROPERTY
W
SciTegic.value.DoubleValue
-52.283

@<SCITEGIC>MOL_PROPERTY
W(PB)
SciTegic.value.DoubleValue
-54.749

@<SCITEGIC>MOL_PROPERTY
W(SA)
SciTegic.value.DoubleValue
2.466

@<SCITEGIC>MOL_PROPERTY
Valence
SciTegic.value.DoubleValue
4.756

@<SCITEGIC>MOL_PROPERTY
Coulomb
SciTegic.value.DoubleValue
19.829

@<SCITEGIC>MOL_PROPERTY
VdW
SciTegic.value.DoubleValue
1.410

@<SCITEGIC>MOL_PROPERTY
VdW6
SciTegic.value.DoubleValue
-9.885

@<SCITEGIC>MOL_PROPERTY
VdW12
SciTegic.value.DoubleValue
11.295

@<SCITEGIC>MOL_PROPERTY
Bond
SciTegic.value.DoubleValue
0.310

@<SCITEGIC>MOL_PROPERTY
Angle
SciTegic.value.DoubleValue
1.687

@<SCITEGIC>MOL_PROPERTY
Pdih
SciTegic.value.DoubleValue
2.759

@<SCITEGIC>MOL_PROPERTY
Idih
SciTegic.value.DoubleValue
0.000

@<SCITEGIC>MOL_PROPERTY
Tether
SciTegic.value.DoubleValue
0.000

@<TRIPOS>MOLECULE
guest-s15_vm2.mol2 : vm2 ligand conformer 56
          29          28           1
SMALL
USER_CHARGES
 
@<TRIPOS>ATOM
       1    C1      20.178201   20.322977   20.079588 C.3        1 MOL1        -0.2426
       2    H1      19.574850   20.002830   19.220289 H          1 MOL1         0.0959
       3    H2      19.572692   21.004658   20.689735 H          1 MOL1         0.0959
       4    H3      21.033892   20.893413   19.695922 H          1 MOL1         0.0959
       5    C2      20.662372   19.107025   20.901135 C.3        1 MOL1        -0.1410
       6    H4      21.253141   19.451533   21.760373 H          1 MOL1         0.0948
       7    H5      21.349053   18.512804   20.282336 H          1 MOL1         0.0948
       8    C3      19.507888   18.189826   21.378102 C.3        1 MOL1        -0.1435
       9    H6      18.996754   17.777950   20.497135 H          1 MOL1         0.0948
      10    H7      19.933122   17.323265   21.901277 H          1 MOL1         0.0948
      11    C4      18.451246   18.875173   22.286141 C.3        1 MOL1        -0.1435
      12    H8      17.706160   18.125065   22.584764 H          1 MOL1         0.0948
      13    H9      17.898703   19.619816   21.697784 H          1 MOL1         0.0948
      14    C5      19.011629   19.559960   23.559504 C.3        1 MOL1        -0.1435
      15    H10     19.686035   20.379375   23.277512 H          1 MOL1         0.0948
      16    H11     18.170854   20.027918   24.087886 H          1 MOL1         0.0948
      17    C6      19.744826   18.583180   24.514220 C.3        1 MOL1        -0.1500
      18    H12     20.593880   18.131079   23.986688 H          1 MOL1         0.0948
      19    H13     19.072665   17.760689   24.792378 H          1 MOL1         0.0948
      20    C7      20.276674   19.273601   25.788806 C.3        1 MOL1         0.1162
      21    H14     20.913047   20.110619   25.485396 H          1 MOL1         0.0910
      22    C8      21.128201   18.293492   26.611463 C.3        1 MOL1        -0.2491
      23    H15     21.973027   17.919195   26.019916 H          1 MOL1         0.0959
      24    H16     21.538255   18.787391   27.501025 H          1 MOL1         0.0959
      25    H17     20.534099   17.432166   26.941777 H          1 MOL1         0.0959
      26    N1      19.174963   19.850766   26.635041 N.4        1 MOL1        -0.5987
      27    H18     19.547722   20.319455   27.465693 H          1 MOL1         0.3605
      28    H19     18.531495   19.122618   26.956376 H          1 MOL1         0.3605
      29    H20     18.625936   20.540256   26.114736 H          1 MOL1         0.3605
@<TRIPOS>BOND
    1     1     2    1
    2     1     3    1
    3     1     4    1
    4     1     5    1
    5     5     6    1
    6     5     7    1
    7     5     8    1
    8     8     9    1
    9     8    10    1
   10     8    11    1
   11    11    12    1
   12    11    13    1
   13    11    14    1
   14    14    15    1
   15    14    16    1
   16    14    17    1
   17    17    18    1
   18    17    19    1
   19    17    20    1
   20    20    21    1
   21    20    22    1
   22    22    23    1
   23    22    24    1
   24    22    25    1
   25    20    26    1
   26    26    27    1
   27    26    28    1
   28    26    29    1
@<TRIPOS>SUBSTRUCTURE
       1 MOL1            1 RESIDUE      1      MOL     
@<SCITEGIC>MOL_PROPERTY
VM2 Rank
SciTegic.value.IntegerValue
56

@<SCITEGIC>MOL_PROPERTY
Conf_Id
SciTegic.value.IntegerValue
821

@<SCITEGIC>MOL_PROPERTY
Probability
SciTegic.value.DoubleValue
0.43

@<SCITEGIC>MOL_PROPERTY
Sum Probability
SciTegic.value.DoubleValue
93.41

@<SCITEGIC>MOL_PROPERTY
Delta G
SciTegic.value.DoubleValue
1.898

@<SCITEGIC>MOL_PROPERTY
G
SciTegic.value.DoubleValue
35.600

@<SCITEGIC>MOL_PROPERTY
E
SciTegic.value.DoubleValue
-2.555

@<SCITEGIC>MOL_PROPERTY
-TS
SciTegic.value.DoubleValue
38.155

@<SCITEGIC>MOL_PROPERTY
U+W
SciTegic.value.DoubleValue
-26.700

@<SCITEGIC>MOL_PROPERTY
U
SciTegic.value.DoubleValue
25.696

@<SCITEGIC>MOL_PROPERTY
W
SciTegic.value.DoubleValue
-52.396

@<SCITEGIC>MOL_PROPERTY
W(PB)
SciTegic.value.DoubleValue
-54.863

@<SCITEGIC>MOL_PROPERTY
W(SA)
SciTegic.value.DoubleValue
2.468

@<SCITEGIC>MOL_PROPERTY
Valence
SciTegic.value.DoubleValue
4.599

@<SCITEGIC>MOL_PROPERTY
Coulomb
SciTegic.value.DoubleValue
20.006

@<SCITEGIC>MOL_PROPERTY
VdW
SciTegic.value.DoubleValue
1.091

@<SCITEGIC>MOL_PROPERTY
VdW6
SciTegic.value.DoubleValue
-10.568

@<SCITEGIC>MOL_PROPERTY
VdW12
SciTegic.value.DoubleValue
11.659

@<SCITEGIC>MOL_PROPERTY
Bond
SciTegic.value.DoubleValue
0.319

@<SCITEGIC>MOL_PROPERTY
Angle
SciTegic.value.DoubleValue
1.895

@<SCITEGIC>MOL_PROPERTY
Pdih
SciTegic.value.DoubleValue
2.384

@<SCITEGIC>MOL_PROPERTY
Idih
SciTegic.value.DoubleValue
0.000

@<SCITEGIC>MOL_PROPERTY
Tether
SciTegic.value.DoubleValue
0.000

@<TRIPOS>MOLECULE
guest-s15_vm2.mol2 : vm2 ligand conformer 57
          29          28           1
SMALL
USER_CHARGES
 
@<TRIPOS>ATOM
       1    C1      19.687544   19.915431   19.607090 C.3        1 MOL1        -0.2426
       2    H1      19.254989   18.999664   19.183672 H          1 MOL1         0.0959
       3    H2      18.868373   20.544460   19.976515 H          1 MOL1         0.0959
       4    H3      20.180140   20.461685   18.792306 H          1 MOL1         0.0959
       5    C2      20.701118   19.585371   20.726249 C.3        1 MOL1        -0.1410
       6    H4      21.093018   20.517148   21.157420 H          1 MOL1         0.0948
       7    H5      21.561765   19.067376   20.280458 H          1 MOL1         0.0948
       8    C3      20.114591   18.695003   21.848294 C.3        1 MOL1        -0.1435
       9    H6      19.727796   17.763289   21.413232 H          1 MOL1         0.0948
      10    H7      20.936781   18.407945   22.516322 H          1 MOL1         0.0948
      11    C4      18.999583   19.391729   22.668623 C.3        1 MOL1        -0.1435
      12    H8      18.179170   19.678792   21.998427 H          1 MOL1         0.0948
      13    H9      19.384491   20.327630   23.094471 H          1 MOL1         0.0948
      14    C5      18.406413   18.499341   23.789892 C.3        1 MOL1        -0.1435
      15    H10     17.588997   19.044427   24.280720 H          1 MOL1         0.0948
      16    H11     17.939605   17.615555   23.333623 H          1 MOL1         0.0948
      17    C6      19.424327   18.027334   24.862490 C.3        1 MOL1        -0.1500
      18    H12     20.127091   17.318689   24.406053 H          1 MOL1         0.0948
      19    H13     18.889213   17.460744   25.636048 H          1 MOL1         0.0948
      20    C7      20.218597   19.173544   25.526693 C.3        1 MOL1         0.1162
      21    H14     20.747472   19.724441   24.743195 H          1 MOL1         0.0910
      22    C8      21.261803   18.607446   26.502714 C.3        1 MOL1        -0.2491
      23    H15     21.854236   19.415502   26.949296 H          1 MOL1         0.0959
      24    H16     20.782613   18.045897   27.314465 H          1 MOL1         0.0959
      25    H17     21.955241   17.933789   25.984009 H          1 MOL1         0.0959
      26    N1      19.322024   20.160802   26.221956 N.4        1 MOL1        -0.5987
      27    H18     19.858090   20.932243   26.629443 H          1 MOL1         0.3605
      28    H19     18.797135   19.717067   26.980255 H          1 MOL1         0.3605
      29    H20     18.642696   20.565908   25.572182 H          1 MOL1         0.3605
@<TRIPOS>BOND
    1     1     2    1
    2     1     3    1
    3     1     4    1
    4     1     5    1
    5     5     6    1
    6     5     7    1
    7     5     8    1
    8     8     9    1
    9     8    10    1
   10     8    11    1
   11    11    12    1
   12    11    13    1
   13    11    14    1
   14    14    15    1
   15    14    16    1
   16    14    17    1
   17    17    18    1
   18    17    19    1
   19    17    20    1
   20    20    21    1
   21    20    22    1
   22    22    23    1
   23    22    24    1
   24    22    25    1
   25    20    26    1
   26    26    27    1
   27    26    28    1
   28    26    29    1
@<TRIPOS>SUBSTRUCTURE
       1 MOL1            1 RESIDUE      1      MOL     
@<SCITEGIC>MOL_PROPERTY
VM2 Rank
SciTegic.value.IntegerValue
57

@<SCITEGIC>MOL_PROPERTY
Conf_Id
SciTegic.value.IntegerValue
707

@<SCITEGIC>MOL_PROPERTY
Probability
SciTegic.value.DoubleValue
0.42

@<SCITEGIC>MOL_PROPERTY
Sum Probability
SciTegic.value.DoubleValue
93.83

@<SCITEGIC>MOL_PROPERTY
Delta G
SciTegic.value.DoubleValue
1.914

@<SCITEGIC>MOL_PROPERTY
G
SciTegic.value.DoubleValue
35.616

@<SCITEGIC>MOL_PROPERTY
E
SciTegic.value.DoubleValue
-2.322

@<SCITEGIC>MOL_PROPERTY
-TS
SciTegic.value.DoubleValue
37.938

@<SCITEGIC>MOL_PROPERTY
U+W
SciTegic.value.DoubleValue
-26.466

@<SCITEGIC>MOL_PROPERTY
U
SciTegic.value.DoubleValue
25.817

@<SCITEGIC>MOL_PROPERTY
W
SciTegic.value.DoubleValue
-52.283

@<SCITEGIC>MOL_PROPERTY
W(PB)
SciTegic.value.DoubleValue
-54.729

@<SCITEGIC>MOL_PROPERTY
W(SA)
SciTegic.value.DoubleValue
2.446

@<SCITEGIC>MOL_PROPERTY
Valence
SciTegic.value.DoubleValue
4.503

@<SCITEGIC>MOL_PROPERTY
Coulomb
SciTegic.value.DoubleValue
20.342

@<SCITEGIC>MOL_PROPERTY
VdW
SciTegic.value.DoubleValue
0.971

@<SCITEGIC>MOL_PROPERTY
VdW6
SciTegic.value.DoubleValue
-10.533

@<SCITEGIC>MOL_PROPERTY
VdW12
SciTegic.value.DoubleValue
11.504

@<SCITEGIC>MOL_PROPERTY
Bond
SciTegic.value.DoubleValue
0.307

@<SCITEGIC>MOL_PROPERTY
Angle
SciTegic.value.DoubleValue
1.715

@<SCITEGIC>MOL_PROPERTY
Pdih
SciTegic.value.DoubleValue
2.481

@<SCITEGIC>MOL_PROPERTY
Idih
SciTegic.value.DoubleValue
0.000

@<SCITEGIC>MOL_PROPERTY
Tether
SciTegic.value.DoubleValue
0.000

@<TRIPOS>MOLECULE
guest-s15_vm2.mol2 : vm2 ligand conformer 58
          29          28           1
SMALL
USER_CHARGES
 
@<TRIPOS>ATOM
       1    C1      19.154872   19.073955   19.295498 C.3        1 MOL1        -0.2426
       2    H1      18.993511   17.988242   19.309749 H          1 MOL1         0.0959
       3    H2      18.244172   19.562404   19.663223 H          1 MOL1         0.0959
       4    H3      19.292575   19.378981   18.250067 H          1 MOL1         0.0959
       5    C2      20.390165   19.463383   20.138904 C.3        1 MOL1        -0.1410
       6    H4      20.509858   20.555805   20.137896 H          1 MOL1         0.0948
       7    H5      21.289061   19.055417   19.655868 H          1 MOL1         0.0948
       8    C3      20.332561   18.944092   21.596007 C.3        1 MOL1        -0.1435
       9    H6      20.213636   17.851927   21.591385 H          1 MOL1         0.0948
      10    H7      21.302770   19.148638   22.066232 H          1 MOL1         0.0948
      11    C4      19.202098   19.590415   22.436681 C.3        1 MOL1        -0.1435
      12    H8      18.233928   19.391432   21.959570 H          1 MOL1         0.0948
      13    H9      19.323758   20.682244   22.445175 H          1 MOL1         0.0948
      14    C5      19.133916   19.063894   23.891528 C.3        1 MOL1        -0.1435
      15    H10     18.227519   19.470972   24.358231 H          1 MOL1         0.0948
      16    H11     19.009855   17.973028   23.872471 H          1 MOL1         0.0948
      17    C6      20.372795   19.447058   24.746576 C.3        1 MOL1        -0.1500
      18    H12     20.550286   20.527186   24.662587 H          1 MOL1         0.0948
      19    H13     21.267887   18.959413   24.341247 H          1 MOL1         0.0948
      20    C7      20.263146   19.083980   26.246338 C.3        1 MOL1         0.1162
      21    H14     21.189104   19.412040   26.728770 H          1 MOL1         0.0910
      22    C8      20.136185   17.566343   26.465136 C.3        1 MOL1        -0.2491
      23    H15     20.948934   17.030287   25.959502 H          1 MOL1         0.0959
      24    H16     20.194011   17.326660   27.533967 H          1 MOL1         0.0959
      25    H17     19.182044   17.180854   26.086463 H          1 MOL1         0.0959
      26    N1      19.150263   19.822880   26.937332 N.4        1 MOL1        -0.5987
      27    H18     19.251113   20.836577   26.832683 H          1 MOL1         0.3605
      28    H19     19.132385   19.618887   27.940682 H          1 MOL1         0.3605
      29    H20     18.237932   19.562514   26.554841 H          1 MOL1         0.3605
@<TRIPOS>BOND
    1     1     2    1
    2     1     3    1
    3     1     4    1
    4     1     5    1
    5     5     6    1
    6     5     7    1
    7     5     8    1
    8     8     9    1
    9     8    10    1
   10     8    11    1
   11    11    12    1
   12    11    13    1
   13    11    14    1
   14    14    15    1
   15    14    16    1
   16    14    17    1
   17    17    18    1
   18    17    19    1
   19    17    20    1
   20    20    21    1
   21    20    22    1
   22    22    23    1
   23    22    24    1
   24    22    25    1
   25    20    26    1
   26    26    27    1
   27    26    28    1
   28    26    29    1
@<TRIPOS>SUBSTRUCTURE
       1 MOL1            1 RESIDUE      1      MOL     
@<SCITEGIC>MOL_PROPERTY
VM2 Rank
SciTegic.value.IntegerValue
58

@<SCITEGIC>MOL_PROPERTY
Conf_Id
SciTegic.value.IntegerValue
603

@<SCITEGIC>MOL_PROPERTY
Probability
SciTegic.value.DoubleValue
0.40

@<SCITEGIC>MOL_PROPERTY
Sum Probability
SciTegic.value.DoubleValue
94.23

@<SCITEGIC>MOL_PROPERTY
Delta G
SciTegic.value.DoubleValue
1.935

@<SCITEGIC>MOL_PROPERTY
G
SciTegic.value.DoubleValue
35.637

@<SCITEGIC>MOL_PROPERTY
E
SciTegic.value.DoubleValue
-2.058

@<SCITEGIC>MOL_PROPERTY
-TS
SciTegic.value.DoubleValue
37.695

@<SCITEGIC>MOL_PROPERTY
U+W
SciTegic.value.DoubleValue
-26.203

@<SCITEGIC>MOL_PROPERTY
U
SciTegic.value.DoubleValue
25.894

@<SCITEGIC>MOL_PROPERTY
W
SciTegic.value.DoubleValue
-52.097

@<SCITEGIC>MOL_PROPERTY
W(PB)
SciTegic.value.DoubleValue
-54.600

@<SCITEGIC>MOL_PROPERTY
W(SA)
SciTegic.value.DoubleValue
2.503

@<SCITEGIC>MOL_PROPERTY
Valence
SciTegic.value.DoubleValue
4.780

@<SCITEGIC>MOL_PROPERTY
Coulomb
SciTegic.value.DoubleValue
19.659

@<SCITEGIC>MOL_PROPERTY
VdW
SciTegic.value.DoubleValue
1.455

@<SCITEGIC>MOL_PROPERTY
VdW6
SciTegic.value.DoubleValue
-9.843

@<SCITEGIC>MOL_PROPERTY
VdW12
SciTegic.value.DoubleValue
11.298

@<SCITEGIC>MOL_PROPERTY
Bond
SciTegic.value.DoubleValue
0.315

@<SCITEGIC>MOL_PROPERTY
Angle
SciTegic.value.DoubleValue
1.725

@<SCITEGIC>MOL_PROPERTY
Pdih
SciTegic.value.DoubleValue
2.740

@<SCITEGIC>MOL_PROPERTY
Idih
SciTegic.value.DoubleValue
0.000

@<SCITEGIC>MOL_PROPERTY
Tether
SciTegic.value.DoubleValue
0.000

@<TRIPOS>MOLECULE
guest-s15_vm2.mol2 : vm2 ligand conformer 59
          29          28           1
SMALL
USER_CHARGES
 
@<TRIPOS>ATOM
       1    C1      18.895828   20.214190   20.247576 C.3        1 MOL1        -0.2426
       2    H1      17.887655   20.556107   19.980221 H          1 MOL1         0.0959
       3    H2      19.381827   21.022659   20.807709 H          1 MOL1         0.0959
       4    H3      19.455398   20.056314   19.316514 H          1 MOL1         0.0959
       5    C2      18.823929   18.913474   21.078727 C.3        1 MOL1        -0.1410
       6    H4      18.236589   18.170023   20.522092 H          1 MOL1         0.0948
       7    H5      18.270961   19.098302   22.009235 H          1 MOL1         0.0948
       8    C3      20.215462   18.308331   21.393667 C.3        1 MOL1        -0.1435
       9    H6      20.078808   17.363124   21.935510 H          1 MOL1         0.0948
      10    H7      20.705299   18.036951   20.448470 H          1 MOL1         0.0948
      11    C4      21.170541   19.230829   22.198094 C.3        1 MOL1        -0.1435
      12    H8      21.446126   20.095304   21.579518 H          1 MOL1         0.0948
      13    H9      22.108847   18.689608   22.381505 H          1 MOL1         0.0948
      14    C5      20.611658   19.739899   23.551465 C.3        1 MOL1        -0.1435
      15    H10     21.367448   20.388188   24.016067 H          1 MOL1         0.0948
      16    H11     19.735588   20.375416   23.370556 H          1 MOL1         0.0948
      17    C6      20.253336   18.598124   24.536343 C.3        1 MOL1        -0.1500
      18    H12     21.118339   17.928604   24.632872 H          1 MOL1         0.0948
      19    H13     19.431016   17.994236   24.132188 H          1 MOL1         0.0948
      20    C7      19.864518   19.116049   25.937583 C.3        1 MOL1         0.1162
      21    H14     20.686986   19.730458   26.316612 H          1 MOL1         0.0910
      22    C8      19.655880   17.939111   26.903737 C.3        1 MOL1        -0.2491
      23    H15     19.415196   18.301438   27.910801 H          1 MOL1         0.0959
      24    H16     18.836592   17.290722   26.568647 H          1 MOL1         0.0959
      25    H17     20.565298   17.329845   26.977910 H          1 MOL1         0.0959
      26    N1      18.644849   19.995994   25.906808 N.4        1 MOL1        -0.5987
      27    H18     18.414922   20.348760   26.840274 H          1 MOL1         0.3605
      28    H19     17.826924   19.487390   25.560844 H          1 MOL1         0.3605
      29    H20     18.785209   20.807102   25.298499 H          1 MOL1         0.3605
@<TRIPOS>BOND
    1     1     2    1
    2     1     3    1
    3     1     4    1
    4     1     5    1
    5     5     6    1
    6     5     7    1
    7     5     8    1
    8     8     9    1
    9     8    10    1
   10     8    11    1
   11    11    12    1
   12    11    13    1
   13    11    14    1
   14    14    15    1
   15    14    16    1
   16    14    17    1
   17    17    18    1
   18    17    19    1
   19    17    20    1
   20    20    21    1
   21    20    22    1
   22    22    23    1
   23    22    24    1
   24    22    25    1
   25    20    26    1
   26    26    27    1
   27    26    28    1
   28    26    29    1
@<TRIPOS>SUBSTRUCTURE
       1 MOL1            1 RESIDUE      1      MOL     
@<SCITEGIC>MOL_PROPERTY
VM2 Rank
SciTegic.value.IntegerValue
59

@<SCITEGIC>MOL_PROPERTY
Conf_Id
SciTegic.value.IntegerValue
1591

@<SCITEGIC>MOL_PROPERTY
Probability
SciTegic.value.DoubleValue
0.38

@<SCITEGIC>MOL_PROPERTY
Sum Probability
SciTegic.value.DoubleValue
94.61

@<SCITEGIC>MOL_PROPERTY
Delta G
SciTegic.value.DoubleValue
1.971

@<SCITEGIC>MOL_PROPERTY
G
SciTegic.value.DoubleValue
35.673

@<SCITEGIC>MOL_PROPERTY
E
SciTegic.value.DoubleValue
-2.497

@<SCITEGIC>MOL_PROPERTY
-TS
SciTegic.value.DoubleValue
38.170

@<SCITEGIC>MOL_PROPERTY
U+W
SciTegic.value.DoubleValue
-26.642

@<SCITEGIC>MOL_PROPERTY
U
SciTegic.value.DoubleValue
26.016

@<SCITEGIC>MOL_PROPERTY
W
SciTegic.value.DoubleValue
-52.657

@<SCITEGIC>MOL_PROPERTY
W(PB)
SciTegic.value.DoubleValue
-55.101

@<SCITEGIC>MOL_PROPERTY
W(SA)
SciTegic.value.DoubleValue
2.443

@<SCITEGIC>MOL_PROPERTY
Valence
SciTegic.value.DoubleValue
4.552

@<SCITEGIC>MOL_PROPERTY
Coulomb
SciTegic.value.DoubleValue
20.496

@<SCITEGIC>MOL_PROPERTY
VdW
SciTegic.value.DoubleValue
0.968

@<SCITEGIC>MOL_PROPERTY
VdW6
SciTegic.value.DoubleValue
-10.658

@<SCITEGIC>MOL_PROPERTY
VdW12
SciTegic.value.DoubleValue
11.626

@<SCITEGIC>MOL_PROPERTY
Bond
SciTegic.value.DoubleValue
0.311

@<SCITEGIC>MOL_PROPERTY
Angle
SciTegic.value.DoubleValue
1.812

@<SCITEGIC>MOL_PROPERTY
Pdih
SciTegic.value.DoubleValue
2.429

@<SCITEGIC>MOL_PROPERTY
Idih
SciTegic.value.DoubleValue
0.000

@<SCITEGIC>MOL_PROPERTY
Tether
SciTegic.value.DoubleValue
0.000

@<TRIPOS>MOLECULE
guest-s15_vm2.mol2 : vm2 ligand conformer 60
          29          28           1
SMALL
USER_CHARGES
 
@<TRIPOS>ATOM
       1    C1      19.090208   19.174122   19.307402 C.3        1 MOL1        -0.2426
       2    H1      18.842342   18.137640   19.567104 H          1 MOL1         0.0959
       3    H2      18.192030   19.789178   19.448810 H          1 MOL1         0.0959
       4    H3      19.345614   19.193707   18.240015 H          1 MOL1         0.0959
       5    C2      20.268005   19.707373   20.154403 C.3        1 MOL1        -0.1410
       6    H4      20.559803   20.694528   19.769493 H          1 MOL1         0.0948
       7    H5      21.143169   19.055700   20.023543 H          1 MOL1         0.0948
       8    C3      19.935680   19.842017   21.660274 C.3        1 MOL1        -0.1435
       9    H6      20.776010   20.352941   22.146847 H          1 MOL1         0.0948
      10    H7      19.060858   20.494710   21.785341 H          1 MOL1         0.0948
      11    C4      19.678781   18.482315   22.358788 C.3        1 MOL1        -0.1435
      12    H8      20.554843   17.830593   22.237378 H          1 MOL1         0.0948
      13    H9      18.843263   17.971559   21.863188 H          1 MOL1         0.0948
      14    C5      19.332231   18.612407   23.862705 C.3        1 MOL1        -0.1435
      15    H10     18.465315   19.276483   23.977140 H          1 MOL1         0.0948
      16    H11     19.015515   17.624408   24.220606 H          1 MOL1         0.0948
      17    C6      20.516735   19.121723   24.729281 C.3        1 MOL1        -0.1500
      18    H12     20.812611   20.124075   24.397492 H          1 MOL1         0.0948
      19    H13     21.390681   18.477559   24.565528 H          1 MOL1         0.0948
      20    C7      20.228222   19.192343   26.247616 C.3        1 MOL1         0.1162
      21    H14     21.115621   19.617493   26.726715 H          1 MOL1         0.0910
      22    C8      19.993484   17.800636   26.860667 C.3        1 MOL1        -0.2491
      23    H15     19.935371   17.868936   27.953899 H          1 MOL1         0.0959
      24    H16     19.059186   17.351188   26.504314 H          1 MOL1         0.0959
      25    H17     20.818749   17.121292   26.613706 H          1 MOL1         0.0959
      26    N1      19.092654   20.123065   26.572864 N.4        1 MOL1        -0.5987
      27    H18     18.954732   20.205963   27.584168 H          1 MOL1         0.3605
      28    H19     18.213621   19.790239   26.168987 H          1 MOL1         0.3605
      29    H20     19.263094   21.064764   26.208462 H          1 MOL1         0.3605
@<TRIPOS>BOND
    1     1     2    1
    2     1     3    1
    3     1     4    1
    4     1     5    1
    5     5     6    1
    6     5     7    1
    7     5     8    1
    8     8     9    1
    9     8    10    1
   10     8    11    1
   11    11    12    1
   12    11    13    1
   13    11    14    1
   14    14    15    1
   15    14    16    1
   16    14    17    1
   17    17    18    1
   18    17    19    1
   19    17    20    1
   20    20    21    1
   21    20    22    1
   22    22    23    1
   23    22    24    1
   24    22    25    1
   25    20    26    1
   26    26    27    1
   27    26    28    1
   28    26    29    1
@<TRIPOS>SUBSTRUCTURE
       1 MOL1            1 RESIDUE      1      MOL     
@<SCITEGIC>MOL_PROPERTY
VM2 Rank
SciTegic.value.IntegerValue
60

@<SCITEGIC>MOL_PROPERTY
Conf_Id
SciTegic.value.IntegerValue
513

@<SCITEGIC>MOL_PROPERTY
Probability
SciTegic.value.DoubleValue
0.38

@<SCITEGIC>MOL_PROPERTY
Sum Probability
SciTegic.value.DoubleValue
94.99

@<SCITEGIC>MOL_PROPERTY
Delta G
SciTegic.value.DoubleValue
1.973

@<SCITEGIC>MOL_PROPERTY
G
SciTegic.value.DoubleValue
35.676

@<SCITEGIC>MOL_PROPERTY
E
SciTegic.value.DoubleValue
-1.954

@<SCITEGIC>MOL_PROPERTY
-TS
SciTegic.value.DoubleValue
37.630

@<SCITEGIC>MOL_PROPERTY
U+W
SciTegic.value.DoubleValue
-26.099

@<SCITEGIC>MOL_PROPERTY
U
SciTegic.value.DoubleValue
26.189

@<SCITEGIC>MOL_PROPERTY
W
SciTegic.value.DoubleValue
-52.288

@<SCITEGIC>MOL_PROPERTY
W(PB)
SciTegic.value.DoubleValue
-54.798

@<SCITEGIC>MOL_PROPERTY
W(SA)
SciTegic.value.DoubleValue
2.510

@<SCITEGIC>MOL_PROPERTY
Valence
SciTegic.value.DoubleValue
4.871

@<SCITEGIC>MOL_PROPERTY
Coulomb
SciTegic.value.DoubleValue
19.831

@<SCITEGIC>MOL_PROPERTY
VdW
SciTegic.value.DoubleValue
1.487

@<SCITEGIC>MOL_PROPERTY
VdW6
SciTegic.value.DoubleValue
-9.787

@<SCITEGIC>MOL_PROPERTY
VdW12
SciTegic.value.DoubleValue
11.273

@<SCITEGIC>MOL_PROPERTY
Bond
SciTegic.value.DoubleValue
0.320

@<SCITEGIC>MOL_PROPERTY
Angle
SciTegic.value.DoubleValue
1.789

@<SCITEGIC>MOL_PROPERTY
Pdih
SciTegic.value.DoubleValue
2.762

@<SCITEGIC>MOL_PROPERTY
Idih
SciTegic.value.DoubleValue
0.000

@<SCITEGIC>MOL_PROPERTY
Tether
SciTegic.value.DoubleValue
0.000

@<TRIPOS>MOLECULE
guest-s15_vm2.mol2 : vm2 ligand conformer 61
          29          28           1
SMALL
USER_CHARGES
 
@<TRIPOS>ATOM
       1    C1      20.287410   18.594754   19.820479 C.3        1 MOL1        -0.2426
       2    H1      19.942829   18.030847   18.944061 H          1 MOL1         0.0959
       3    H2      21.154962   19.193995   19.515184 H          1 MOL1         0.0959
       4    H3      20.618517   17.867290   20.572071 H          1 MOL1         0.0959
       5    C2      19.155077   19.494515   20.364764 C.3        1 MOL1        -0.1410
       6    H4      18.307753   18.872693   20.682906 H          1 MOL1         0.0948
       7    H5      18.775924   20.120237   19.544799 H          1 MOL1         0.0948
       8    C3      19.605989   20.420934   21.522847 C.3        1 MOL1        -0.1435
       9    H6      20.362273   21.120612   21.141256 H          1 MOL1         0.0948
      10    H7      18.753226   21.040532   21.832591 H          1 MOL1         0.0948
      11    C4      20.183114   19.698613   22.767743 C.3        1 MOL1        -0.1435
      12    H8      20.490469   20.466781   23.489100 H          1 MOL1         0.0948
      13    H9      21.098671   19.157401   22.494895 H          1 MOL1         0.0948
      14    C5      19.180284   18.726450   23.439225 C.3        1 MOL1        -0.1435
      15    H10     18.254629   19.260989   23.690237 H          1 MOL1         0.0948
      16    H11     18.895686   17.943814   22.724075 H          1 MOL1         0.0948
      17    C6      19.753811   18.033002   24.701729 C.3        1 MOL1        -0.1500
      18    H12     20.625400   17.432433   24.409162 H          1 MOL1         0.0948
      19    H13     19.009509   17.324246   25.088433 H          1 MOL1         0.0948
      20    C7      20.167348   19.003647   25.830701 C.3        1 MOL1         0.1162
      21    H14     20.928325   19.684943   25.439204 H          1 MOL1         0.0910
      22    C8      20.780922   18.226419   27.005947 C.3        1 MOL1        -0.2491
      23    H15     20.055236   17.529223   27.443222 H          1 MOL1         0.0959
      24    H16     21.654275   17.649235   26.677534 H          1 MOL1         0.0959
      25    H17     21.113009   18.913125   27.794321 H          1 MOL1         0.0959
      26    N1      19.022046   19.857665   26.300566 N.4        1 MOL1        -0.5987
      27    H18     19.317530   20.513081   27.029727 H          1 MOL1         0.3605
      28    H19     18.266269   19.286742   26.688236 H          1 MOL1         0.3605
      29    H20     18.630432   20.408091   25.531393 H          1 MOL1         0.3605
@<TRIPOS>BOND
    1     1     2    1
    2     1     3    1
    3     1     4    1
    4     1     5    1
    5     5     6    1
    6     5     7    1
    7     5     8    1
    8     8     9    1
    9     8    10    1
   10     8    11    1
   11    11    12    1
   12    11    13    1
   13    11    14    1
   14    14    15    1
   15    14    16    1
   16    14    17    1
   17    17    18    1
   18    17    19    1
   19    17    20    1
   20    20    21    1
   21    20    22    1
   22    22    23    1
   23    22    24    1
   24    22    25    1
   25    20    26    1
   26    26    27    1
   27    26    28    1
   28    26    29    1
@<TRIPOS>SUBSTRUCTURE
       1 MOL1            1 RESIDUE      1      MOL     
@<SCITEGIC>MOL_PROPERTY
VM2 Rank
SciTegic.value.IntegerValue
61

@<SCITEGIC>MOL_PROPERTY
Conf_Id
SciTegic.value.IntegerValue
1630

@<SCITEGIC>MOL_PROPERTY
Probability
SciTegic.value.DoubleValue
0.37

@<SCITEGIC>MOL_PROPERTY
Sum Probability
SciTegic.value.DoubleValue
95.36

@<SCITEGIC>MOL_PROPERTY
Delta G
SciTegic.value.DoubleValue
1.987

@<SCITEGIC>MOL_PROPERTY
G
SciTegic.value.DoubleValue
35.690

@<SCITEGIC>MOL_PROPERTY
E
SciTegic.value.DoubleValue
-2.306

@<SCITEGIC>MOL_PROPERTY
-TS
SciTegic.value.DoubleValue
37.996

@<SCITEGIC>MOL_PROPERTY
U+W
SciTegic.value.DoubleValue
-26.451

@<SCITEGIC>MOL_PROPERTY
U
SciTegic.value.DoubleValue
25.812

@<SCITEGIC>MOL_PROPERTY
W
SciTegic.value.DoubleValue
-52.263

@<SCITEGIC>MOL_PROPERTY
W(PB)
SciTegic.value.DoubleValue
-54.731

@<SCITEGIC>MOL_PROPERTY
W(SA)
SciTegic.value.DoubleValue
2.468

@<SCITEGIC>MOL_PROPERTY
Valence
SciTegic.value.DoubleValue
4.469

@<SCITEGIC>MOL_PROPERTY
Coulomb
SciTegic.value.DoubleValue
20.263

@<SCITEGIC>MOL_PROPERTY
VdW
SciTegic.value.DoubleValue
1.081

@<SCITEGIC>MOL_PROPERTY
VdW6
SciTegic.value.DoubleValue
-10.395

@<SCITEGIC>MOL_PROPERTY
VdW12
SciTegic.value.DoubleValue
11.476

@<SCITEGIC>MOL_PROPERTY
Bond
SciTegic.value.DoubleValue
0.305

@<SCITEGIC>MOL_PROPERTY
Angle
SciTegic.value.DoubleValue
1.805

@<SCITEGIC>MOL_PROPERTY
Pdih
SciTegic.value.DoubleValue
2.359

@<SCITEGIC>MOL_PROPERTY
Idih
SciTegic.value.DoubleValue
0.000

@<SCITEGIC>MOL_PROPERTY
Tether
SciTegic.value.DoubleValue
0.000

@<TRIPOS>MOLECULE
guest-s15_vm2.mol2 : vm2 ligand conformer 62
          29          28           1
SMALL
USER_CHARGES
 
@<TRIPOS>ATOM
       1    C1      21.173223   20.043426   20.770966 C.3        1 MOL1        -0.2426
       2    H1      21.440288   20.099439   21.833298 H          1 MOL1         0.0959
       3    H2      22.095419   19.849663   20.208076 H          1 MOL1         0.0959
       4    H3      20.789297   21.023723   20.460220 H          1 MOL1         0.0959
       5    C2      20.133711   18.931055   20.506142 C.3        1 MOL1        -0.1410
       6    H4      20.531553   17.964097   20.841787 H          1 MOL1         0.0948
       7    H5      19.987693   18.835172   19.421197 H          1 MOL1         0.0948
       8    C3      18.757921   19.203280   21.166064 C.3        1 MOL1        -0.1435
       9    H6      18.329134   20.115590   20.729117 H          1 MOL1         0.0948
      10    H7      18.069615   18.389863   20.898318 H          1 MOL1         0.0948
      11    C4      18.783219   19.355073   22.708675 C.3        1 MOL1        -0.1435
      12    H8      17.761051   19.566062   23.051782 H          1 MOL1         0.0948
      13    H9      19.381947   20.233371   22.981436 H          1 MOL1         0.0948
      14    C5      19.311453   18.096941   23.442467 C.3        1 MOL1        -0.1435
      15    H10     18.757044   17.216371   23.090068 H          1 MOL1         0.0948
      16    H11     20.361957   17.918446   23.180974 H          1 MOL1         0.0948
      17    C6      19.164890   18.186468   24.983255 C.3        1 MOL1        -0.1500
      18    H12     19.542451   17.258675   25.433126 H          1 MOL1         0.0948
      19    H13     18.095301   18.229717   25.227549 H          1 MOL1         0.0948
      20    C7      19.872376   19.396472   25.637678 C.3        1 MOL1         0.1162
      21    H14     19.488748   20.311570   25.177058 H          1 MOL1         0.0910
      22    C8      21.397705   19.352428   25.437646 C.3        1 MOL1        -0.2491
      23    H15     21.662117   19.421440   24.376264 H          1 MOL1         0.0959
      24    H16     21.878994   20.195822   25.947854 H          1 MOL1         0.0959
      25    H17     21.823500   18.424118   25.838356 H          1 MOL1         0.0959
      26    N1      19.541503   19.490857   27.101106 N.4        1 MOL1        -0.5987
      27    H18     19.975905   20.312700   27.530674 H          1 MOL1         0.3605
      28    H19     19.872023   18.668275   27.612807 H          1 MOL1         0.3605
      29    H20     18.531723   19.564112   27.255501 H          1 MOL1         0.3605
@<TRIPOS>BOND
    1     1     2    1
    2     1     3    1
    3     1     4    1
    4     1     5    1
    5     5     6    1
    6     5     7    1
    7     5     8    1
    8     8     9    1
    9     8    10    1
   10     8    11    1
   11    11    12    1
   12    11    13    1
   13    11    14    1
   14    14    15    1
   15    14    16    1
   16    14    17    1
   17    17    18    1
   18    17    19    1
   19    17    20    1
   20    20    21    1
   21    20    22    1
   22    22    23    1
   23    22    24    1
   24    22    25    1
   25    20    26    1
   26    26    27    1
   27    26    28    1
   28    26    29    1
@<TRIPOS>SUBSTRUCTURE
       1 MOL1            1 RESIDUE      1      MOL     
@<SCITEGIC>MOL_PROPERTY
VM2 Rank
SciTegic.value.IntegerValue
62

@<SCITEGIC>MOL_PROPERTY
Conf_Id
SciTegic.value.IntegerValue
1329

@<SCITEGIC>MOL_PROPERTY
Probability
SciTegic.value.DoubleValue
0.36

@<SCITEGIC>MOL_PROPERTY
Sum Probability
SciTegic.value.DoubleValue
95.72

@<SCITEGIC>MOL_PROPERTY
Delta G
SciTegic.value.DoubleValue
2.005

@<SCITEGIC>MOL_PROPERTY
G
SciTegic.value.DoubleValue
35.707

@<SCITEGIC>MOL_PROPERTY
E
SciTegic.value.DoubleValue
-2.506

@<SCITEGIC>MOL_PROPERTY
-TS
SciTegic.value.DoubleValue
38.213

@<SCITEGIC>MOL_PROPERTY
U+W
SciTegic.value.DoubleValue
-26.650

@<SCITEGIC>MOL_PROPERTY
U
SciTegic.value.DoubleValue
25.905

@<SCITEGIC>MOL_PROPERTY
W
SciTegic.value.DoubleValue
-52.555

@<SCITEGIC>MOL_PROPERTY
W(PB)
SciTegic.value.DoubleValue
-54.967

@<SCITEGIC>MOL_PROPERTY
W(SA)
SciTegic.value.DoubleValue
2.413

@<SCITEGIC>MOL_PROPERTY
Valence
SciTegic.value.DoubleValue
4.893

@<SCITEGIC>MOL_PROPERTY
Coulomb
SciTegic.value.DoubleValue
20.129

@<SCITEGIC>MOL_PROPERTY
VdW
SciTegic.value.DoubleValue
0.883

@<SCITEGIC>MOL_PROPERTY
VdW6
SciTegic.value.DoubleValue
-10.963

@<SCITEGIC>MOL_PROPERTY
VdW12
SciTegic.value.DoubleValue
11.846

@<SCITEGIC>MOL_PROPERTY
Bond
SciTegic.value.DoubleValue
0.307

@<SCITEGIC>MOL_PROPERTY
Angle
SciTegic.value.DoubleValue
2.002

@<SCITEGIC>MOL_PROPERTY
Pdih
SciTegic.value.DoubleValue
2.583

@<SCITEGIC>MOL_PROPERTY
Idih
SciTegic.value.DoubleValue
0.000

@<SCITEGIC>MOL_PROPERTY
Tether
SciTegic.value.DoubleValue
0.000

@<TRIPOS>MOLECULE
guest-s15_vm2.mol2 : vm2 ligand conformer 63
          29          28           1
SMALL
USER_CHARGES
 
@<TRIPOS>ATOM
       1    C1      20.368242   20.735143   20.617939 C.3        1 MOL1        -0.2426
       2    H1      19.915335   21.474272   21.291415 H          1 MOL1         0.0959
       3    H2      21.352081   20.461490   21.018730 H          1 MOL1         0.0959
       4    H3      20.531030   21.220802   19.647095 H          1 MOL1         0.0959
       5    C2      19.456519   19.497583   20.457215 C.3        1 MOL1        -0.1410
       6    H4      19.943835   18.761364   19.802848 H          1 MOL1         0.0948
       7    H5      18.533472   19.801736   19.944188 H          1 MOL1         0.0948
       8    C3      19.080960   18.834563   21.803983 C.3        1 MOL1        -0.1435
       9    H6      18.575293   19.574385   22.438255 H          1 MOL1         0.0948
      10    H7      18.349104   18.038325   21.610464 H          1 MOL1         0.0948
      11    C4      20.297273   18.232369   22.551258 C.3        1 MOL1        -0.1435
      12    H8      20.998943   19.027743   22.832390 H          1 MOL1         0.0948
      13    H9      20.845981   17.570881   21.866899 H          1 MOL1         0.0948
      14    C5      19.904070   17.417727   23.810340 C.3        1 MOL1        -0.1435
      15    H10     19.293466   16.557253   23.504033 H          1 MOL1         0.0948
      16    H11     20.812329   16.990267   24.255693 H          1 MOL1         0.0948
      17    C6      19.128120   18.220793   24.888774 C.3        1 MOL1        -0.1500
      18    H12     18.961279   17.575957   25.761704 H          1 MOL1         0.0948
      19    H13     18.130089   18.460307   24.500272 H          1 MOL1         0.0948
      20    C7      19.814166   19.529828   25.344321 C.3        1 MOL1         0.1162
      21    H14     19.987028   20.153037   24.461799 H          1 MOL1         0.0910
      22    C8      21.167681   19.263389   26.026455 C.3        1 MOL1        -0.2491
      23    H15     21.050563   18.604016   26.895438 H          1 MOL1         0.0959
      24    H16     21.876883   18.795310   25.333907 H          1 MOL1         0.0959
      25    H17     21.619044   20.202357   26.369757 H          1 MOL1         0.0959
      26    N1      18.918970   20.324605   26.253714 N.4        1 MOL1        -0.5987
      27    H18     18.708511   19.810293   27.113326 H          1 MOL1         0.3605
      28    H19     18.027169   20.549510   25.803366 H          1 MOL1         0.3605
      29    H20     19.354654   21.210191   26.526800 H          1 MOL1         0.3605
@<TRIPOS>BOND
    1     1     2    1
    2     1     3    1
    3     1     4    1
    4     1     5    1
    5     5     6    1
    6     5     7    1
    7     5     8    1
    8     8     9    1
    9     8    10    1
   10     8    11    1
   11    11    12    1
   12    11    13    1
   13    11    14    1
   14    14    15    1
   15    14    16    1
   16    14    17    1
   17    17    18    1
   18    17    19    1
   19    17    20    1
   20    20    21    1
   21    20    22    1
   22    22    23    1
   23    22    24    1
   24    22    25    1
   25    20    26    1
   26    26    27    1
   27    26    28    1
   28    26    29    1
@<TRIPOS>SUBSTRUCTURE
       1 MOL1            1 RESIDUE      1      MOL     
@<SCITEGIC>MOL_PROPERTY
VM2 Rank
SciTegic.value.IntegerValue
63

@<SCITEGIC>MOL_PROPERTY
Conf_Id
SciTegic.value.IntegerValue
295

@<SCITEGIC>MOL_PROPERTY
Probability
SciTegic.value.DoubleValue
0.34

@<SCITEGIC>MOL_PROPERTY
Sum Probability
SciTegic.value.DoubleValue
96.07

@<SCITEGIC>MOL_PROPERTY
Delta G
SciTegic.value.DoubleValue
2.030

@<SCITEGIC>MOL_PROPERTY
G
SciTegic.value.DoubleValue
35.733

@<SCITEGIC>MOL_PROPERTY
E
SciTegic.value.DoubleValue
-2.375

@<SCITEGIC>MOL_PROPERTY
-TS
SciTegic.value.DoubleValue
38.107

@<SCITEGIC>MOL_PROPERTY
U+W
SciTegic.value.DoubleValue
-26.519

@<SCITEGIC>MOL_PROPERTY
U
SciTegic.value.DoubleValue
26.273

@<SCITEGIC>MOL_PROPERTY
W
SciTegic.value.DoubleValue
-52.792

@<SCITEGIC>MOL_PROPERTY
W(PB)
SciTegic.value.DoubleValue
-55.208

@<SCITEGIC>MOL_PROPERTY
W(SA)
SciTegic.value.DoubleValue
2.416

@<SCITEGIC>MOL_PROPERTY
Valence
SciTegic.value.DoubleValue
4.866

@<SCITEGIC>MOL_PROPERTY
Coulomb
SciTegic.value.DoubleValue
20.504

@<SCITEGIC>MOL_PROPERTY
VdW
SciTegic.value.DoubleValue
0.903

@<SCITEGIC>MOL_PROPERTY
VdW6
SciTegic.value.DoubleValue
-10.948

@<SCITEGIC>MOL_PROPERTY
VdW12
SciTegic.value.DoubleValue
11.851

@<SCITEGIC>MOL_PROPERTY
Bond
SciTegic.value.DoubleValue
0.308

@<SCITEGIC>MOL_PROPERTY
Angle
SciTegic.value.DoubleValue
1.874

@<SCITEGIC>MOL_PROPERTY
Pdih
SciTegic.value.DoubleValue
2.684

@<SCITEGIC>MOL_PROPERTY
Idih
SciTegic.value.DoubleValue
0.000

@<SCITEGIC>MOL_PROPERTY
Tether
SciTegic.value.DoubleValue
0.000

@<TRIPOS>MOLECULE
guest-s15_vm2.mol2 : vm2 ligand conformer 64
          29          28           1
SMALL
USER_CHARGES
 
@<TRIPOS>ATOM
       1    C1      19.322325   20.643724   19.937492 C.3        1 MOL1        -0.2426
       2    H1      19.659541   20.171783   19.005418 H          1 MOL1         0.0959
       3    H2      18.387832   21.179066   19.725050 H          1 MOL1         0.0959
       4    H3      20.074780   21.384672   20.237515 H          1 MOL1         0.0959
       5    C2      19.107646   19.591908   21.046214 C.3        1 MOL1        -0.1410
       6    H4      18.329898   18.882559   20.730735 H          1 MOL1         0.0948
       7    H5      18.733685   20.095957   21.947164 H          1 MOL1         0.0948
       8    C3      20.413117   18.826723   21.366554 C.3        1 MOL1        -0.1435
       9    H6      20.810355   18.395491   20.437353 H          1 MOL1         0.0948
      10    H7      21.178258   19.529504   21.721465 H          1 MOL1         0.0948
      11    C4      20.226111   17.679871   22.393540 C.3        1 MOL1        -0.1435
      12    H8      21.192545   17.178792   22.542063 H          1 MOL1         0.0948
      13    H9      19.559321   16.921783   21.960091 H          1 MOL1         0.0948
      14    C5      19.662683   18.104552   23.774564 C.3        1 MOL1        -0.1435
      15    H10     18.644983   18.496002   23.652704 H          1 MOL1         0.0948
      16    H11     19.567729   17.199973   24.388732 H          1 MOL1         0.0948
      17    C6      20.553078   19.142109   24.511448 C.3        1 MOL1        -0.1500
      18    H12     20.624410   20.056930   23.910500 H          1 MOL1         0.0948
      19    H13     21.575853   18.751078   24.592152 H          1 MOL1         0.0948
      20    C7      20.058157   19.539145   25.922310 C.3        1 MOL1         0.1162
      21    H14     20.739969   20.307010   26.300817 H          1 MOL1         0.0910
      22    C8      20.099396   18.357488   26.906990 C.3        1 MOL1        -0.2491
      23    H15     19.882050   18.700614   27.925918 H          1 MOL1         0.0959
      24    H16     19.362498   17.587583   26.649787 H          1 MOL1         0.0959
      25    H17     21.093309   17.893182   26.917704 H          1 MOL1         0.0959
      26    N1      18.693485   20.170479   25.894888 N.4        1 MOL1        -0.5987
      27    H18     17.986698   19.510460   25.561189 H          1 MOL1         0.3605
      28    H19     18.670267   20.987476   25.278038 H          1 MOL1         0.3605
      29    H20     18.407222   20.482207   26.827384 H          1 MOL1         0.3605
@<TRIPOS>BOND
    1     1     2    1
    2     1     3    1
    3     1     4    1
    4     1     5    1
    5     5     6    1
    6     5     7    1
    7     5     8    1
    8     8     9    1
    9     8    10    1
   10     8    11    1
   11    11    12    1
   12    11    13    1
   13    11    14    1
   14    14    15    1
   15    14    16    1
   16    14    17    1
   17    17    18    1
   18    17    19    1
   19    17    20    1
   20    20    21    1
   21    20    22    1
   22    22    23    1
   23    22    24    1
   24    22    25    1
   25    20    26    1
   26    26    27    1
   27    26    28    1
   28    26    29    1
@<TRIPOS>SUBSTRUCTURE
       1 MOL1            1 RESIDUE      1      MOL     
@<SCITEGIC>MOL_PROPERTY
VM2 Rank
SciTegic.value.IntegerValue
64

@<SCITEGIC>MOL_PROPERTY
Conf_Id
SciTegic.value.IntegerValue
702

@<SCITEGIC>MOL_PROPERTY
Probability
SciTegic.value.DoubleValue
0.33

@<SCITEGIC>MOL_PROPERTY
Sum Probability
SciTegic.value.DoubleValue
96.40

@<SCITEGIC>MOL_PROPERTY
Delta G
SciTegic.value.DoubleValue
2.053

@<SCITEGIC>MOL_PROPERTY
G
SciTegic.value.DoubleValue
35.755

@<SCITEGIC>MOL_PROPERTY
E
SciTegic.value.DoubleValue
-2.206

@<SCITEGIC>MOL_PROPERTY
-TS
SciTegic.value.DoubleValue
37.961

@<SCITEGIC>MOL_PROPERTY
U+W
SciTegic.value.DoubleValue
-26.351

@<SCITEGIC>MOL_PROPERTY
U
SciTegic.value.DoubleValue
26.386

@<SCITEGIC>MOL_PROPERTY
W
SciTegic.value.DoubleValue
-52.736

@<SCITEGIC>MOL_PROPERTY
W(PB)
SciTegic.value.DoubleValue
-55.181

@<SCITEGIC>MOL_PROPERTY
W(SA)
SciTegic.value.DoubleValue
2.445

@<SCITEGIC>MOL_PROPERTY
Valence
SciTegic.value.DoubleValue
4.726

@<SCITEGIC>MOL_PROPERTY
Coulomb
SciTegic.value.DoubleValue
20.483

@<SCITEGIC>MOL_PROPERTY
VdW
SciTegic.value.DoubleValue
1.177

@<SCITEGIC>MOL_PROPERTY
VdW6
SciTegic.value.DoubleValue
-10.349

@<SCITEGIC>MOL_PROPERTY
VdW12
SciTegic.value.DoubleValue
11.526

@<SCITEGIC>MOL_PROPERTY
Bond
SciTegic.value.DoubleValue
0.319

@<SCITEGIC>MOL_PROPERTY
Angle
SciTegic.value.DoubleValue
1.933

@<SCITEGIC>MOL_PROPERTY
Pdih
SciTegic.value.DoubleValue
2.474

@<SCITEGIC>MOL_PROPERTY
Idih
SciTegic.value.DoubleValue
0.000

@<SCITEGIC>MOL_PROPERTY
Tether
SciTegic.value.DoubleValue
0.000

@<TRIPOS>MOLECULE
guest-s15_vm2.mol2 : vm2 ligand conformer 65
          29          28           1
SMALL
USER_CHARGES
 
@<TRIPOS>ATOM
       1    C1      20.237318   19.531515   19.574123 C.3        1 MOL1        -0.2426
       2    H1      21.131618   18.949444   19.828337 H          1 MOL1         0.0959
       3    H2      19.482781   18.844878   19.168884 H          1 MOL1         0.0959
       4    H3      20.516424   20.232027   18.776438 H          1 MOL1         0.0959
       5    C2      19.689951   20.298373   20.799319 C.3        1 MOL1        -0.1410
       6    H4      18.879589   20.961881   20.466407 H          1 MOL1         0.0948
       7    H5      20.473704   20.951631   21.207584 H          1 MOL1         0.0948
       8    C3      19.145529   19.373424   21.914574 C.3        1 MOL1        -0.1435
       9    H6      18.663379   20.004694   22.671941 H          1 MOL1         0.0948
      10    H7      18.358999   18.726006   21.503243 H          1 MOL1         0.0948
      11    C4      20.240533   18.505057   22.584257 C.3        1 MOL1        -0.1435
      12    H8      21.032623   19.151631   22.984470 H          1 MOL1         0.0948
      13    H9      20.719810   17.873152   21.825594 H          1 MOL1         0.0948
      14    C5      19.697467   17.576729   23.701481 C.3        1 MOL1        -0.1435
      15    H10     18.977175   16.872743   23.262532 H          1 MOL1         0.0948
      16    H11     20.521622   16.956653   24.078734 H          1 MOL1         0.0948
      17    C6      19.018221   18.307756   24.890830 C.3        1 MOL1        -0.1500
      18    H12     18.742969   17.566821   25.653016 H          1 MOL1         0.0948
      19    H13     18.072162   18.743166   24.545158 H          1 MOL1         0.0948
      20    C7      19.871588   19.419246   25.544926 C.3        1 MOL1         0.1162
      21    H14     20.150478   20.139914   24.770406 H          1 MOL1         0.0910
      22    C8      21.158163   18.859980   26.177651 C.3        1 MOL1        -0.2491
      23    H15     21.809417   18.407356   25.420872 H          1 MOL1         0.0959
      24    H16     21.729923   19.660503   26.662932 H          1 MOL1         0.0959
      25    H17     20.929478   18.098365   26.933473 H          1 MOL1         0.0959
      26    N1      19.077230   20.183919   26.566840 N.4        1 MOL1        -0.5987
      27    H18     19.627269   20.945332   26.974732 H          1 MOL1         0.3605
      28    H19     18.776873   19.578662   27.335726 H          1 MOL1         0.3605
      29    H20     18.236540   20.600806   26.156760 H          1 MOL1         0.3605
@<TRIPOS>BOND
    1     1     2    1
    2     1     3    1
    3     1     4    1
    4     1     5    1
    5     5     6    1
    6     5     7    1
    7     5     8    1
    8     8     9    1
    9     8    10    1
   10     8    11    1
   11    11    12    1
   12    11    13    1
   13    11    14    1
   14    14    15    1
   15    14    16    1
   16    14    17    1
   17    17    18    1
   18    17    19    1
   19    17    20    1
   20    20    21    1
   21    20    22    1
   22    22    23    1
   23    22    24    1
   24    22    25    1
   25    20    26    1
   26    26    27    1
   27    26    28    1
   28    26    29    1
@<TRIPOS>SUBSTRUCTURE
       1 MOL1            1 RESIDUE      1      MOL     
@<SCITEGIC>MOL_PROPERTY
VM2 Rank
SciTegic.value.IntegerValue
65

@<SCITEGIC>MOL_PROPERTY
Conf_Id
SciTegic.value.IntegerValue
1568

@<SCITEGIC>MOL_PROPERTY
Probability
SciTegic.value.DoubleValue
0.27

@<SCITEGIC>MOL_PROPERTY
Sum Probability
SciTegic.value.DoubleValue
96.67

@<SCITEGIC>MOL_PROPERTY
Delta G
SciTegic.value.DoubleValue
2.167

@<SCITEGIC>MOL_PROPERTY
G
SciTegic.value.DoubleValue
35.869

@<SCITEGIC>MOL_PROPERTY
E
SciTegic.value.DoubleValue
-2.192

@<SCITEGIC>MOL_PROPERTY
-TS
SciTegic.value.DoubleValue
38.061

@<SCITEGIC>MOL_PROPERTY
U+W
SciTegic.value.DoubleValue
-26.337

@<SCITEGIC>MOL_PROPERTY
U
SciTegic.value.DoubleValue
26.391

@<SCITEGIC>MOL_PROPERTY
W
SciTegic.value.DoubleValue
-52.728

@<SCITEGIC>MOL_PROPERTY
W(PB)
SciTegic.value.DoubleValue
-55.165

@<SCITEGIC>MOL_PROPERTY
W(SA)
SciTegic.value.DoubleValue
2.436

@<SCITEGIC>MOL_PROPERTY
Valence
SciTegic.value.DoubleValue
4.975

@<SCITEGIC>MOL_PROPERTY
Coulomb
SciTegic.value.DoubleValue
20.373

@<SCITEGIC>MOL_PROPERTY
VdW
SciTegic.value.DoubleValue
1.044

@<SCITEGIC>MOL_PROPERTY
VdW6
SciTegic.value.DoubleValue
-10.752

@<SCITEGIC>MOL_PROPERTY
VdW12
SciTegic.value.DoubleValue
11.795

@<SCITEGIC>MOL_PROPERTY
Bond
SciTegic.value.DoubleValue
0.316

@<SCITEGIC>MOL_PROPERTY
Angle
SciTegic.value.DoubleValue
1.996

@<SCITEGIC>MOL_PROPERTY
Pdih
SciTegic.value.DoubleValue
2.662

@<SCITEGIC>MOL_PROPERTY
Idih
SciTegic.value.DoubleValue
0.000

@<SCITEGIC>MOL_PROPERTY
Tether
SciTegic.value.DoubleValue
0.000

@<TRIPOS>MOLECULE
guest-s15_vm2.mol2 : vm2 ligand conformer 66
          29          28           1
SMALL
USER_CHARGES
 
@<TRIPOS>ATOM
       1    C1      18.946421   20.266470   19.913418 C.3        1 MOL1        -0.2426
       2    H1      19.781103   20.759064   19.397803 H          1 MOL1         0.0959
       3    H2      18.259799   19.879471   19.149360 H          1 MOL1         0.0959
       4    H3      18.408830   21.025422   20.496672 H          1 MOL1         0.0959
       5    C2      19.450828   19.124784   20.821044 C.3        1 MOL1        -0.1410
       6    H4      19.957252   18.367123   20.206982 H          1 MOL1         0.0948
       7    H5      18.587384   18.631878   21.287129 H          1 MOL1         0.0948
       8    C3      20.418676   19.646820   21.908616 C.3        1 MOL1        -0.1435
       9    H6      21.239688   20.191747   21.422672 H          1 MOL1         0.0948
      10    H7      19.903602   20.380509   22.542433 H          1 MOL1         0.0948
      11    C4      21.030083   18.522847   22.784217 C.3        1 MOL1        -0.1435
      12    H8      21.748390   18.970646   23.483934 H          1 MOL1         0.0948
      13    H9      21.621149   17.854745   22.142826 H          1 MOL1         0.0948
      14    C5      20.003675   17.669729   23.577156 C.3        1 MOL1        -0.1435
      15    H10     19.393894   17.085686   22.875243 H          1 MOL1         0.0948
      16    H11     20.548247   16.924913   24.172511 H          1 MOL1         0.0948
      17    C6      19.061137   18.482477   24.504700 C.3        1 MOL1        -0.1500
      18    H12     18.417984   17.785829   25.058438 H          1 MOL1         0.0948
      19    H13     18.385112   19.082348   23.882216 H          1 MOL1         0.0948
      20    C7      19.781339   19.417167   25.504231 C.3        1 MOL1         0.1162
      21    H14     20.433368   20.089331   24.938558 H          1 MOL1         0.0910
      22    C8      20.643531   18.632192   26.508607 C.3        1 MOL1        -0.2491
      23    H15     21.115213   19.312848   27.227961 H          1 MOL1         0.0959
      24    H16     20.038853   17.909085   27.069945 H          1 MOL1         0.0959
      25    H17     21.447692   18.086561   26.001417 H          1 MOL1         0.0959
      26    N1      18.800311   20.293513   26.232011 N.4        1 MOL1        -0.5987
      27    H18     19.276477   20.940736   26.866862 H          1 MOL1         0.3605
      28    H19     18.149313   19.738488   26.794046 H          1 MOL1         0.3605
      29    H20     18.243679   20.857021   25.582926 H          1 MOL1         0.3605
@<TRIPOS>BOND
    1     1     2    1
    2     1     3    1
    3     1     4    1
    4     1     5    1
    5     5     6    1
    6     5     7    1
    7     5     8    1
    8     8     9    1
    9     8    10    1
   10     8    11    1
   11    11    12    1
   12    11    13    1
   13    11    14    1
   14    14    15    1
   15    14    16    1
   16    14    17    1
   17    17    18    1
   18    17    19    1
   19    17    20    1
   20    20    21    1
   21    20    22    1
   22    22    23    1
   23    22    24    1
   24    22    25    1
   25    20    26    1
   26    26    27    1
   27    26    28    1
   28    26    29    1
@<TRIPOS>SUBSTRUCTURE
       1 MOL1            1 RESIDUE      1      MOL     
@<SCITEGIC>MOL_PROPERTY
VM2 Rank
SciTegic.value.IntegerValue
66

@<SCITEGIC>MOL_PROPERTY
Conf_Id
SciTegic.value.IntegerValue
574

@<SCITEGIC>MOL_PROPERTY
Probability
SciTegic.value.DoubleValue
0.27

@<SCITEGIC>MOL_PROPERTY
Sum Probability
SciTegic.value.DoubleValue
96.94

@<SCITEGIC>MOL_PROPERTY
Delta G
SciTegic.value.DoubleValue
2.176

@<SCITEGIC>MOL_PROPERTY
G
SciTegic.value.DoubleValue
35.879

@<SCITEGIC>MOL_PROPERTY
E
SciTegic.value.DoubleValue
-2.424

@<SCITEGIC>MOL_PROPERTY
-TS
SciTegic.value.DoubleValue
38.303

@<SCITEGIC>MOL_PROPERTY
U+W
SciTegic.value.DoubleValue
-26.569

@<SCITEGIC>MOL_PROPERTY
U
SciTegic.value.DoubleValue
26.205

@<SCITEGIC>MOL_PROPERTY
W
SciTegic.value.DoubleValue
-52.774

@<SCITEGIC>MOL_PROPERTY
W(PB)
SciTegic.value.DoubleValue
-55.195

@<SCITEGIC>MOL_PROPERTY
W(SA)
SciTegic.value.DoubleValue
2.421

@<SCITEGIC>MOL_PROPERTY
Valence
SciTegic.value.DoubleValue
4.871

@<SCITEGIC>MOL_PROPERTY
Coulomb
SciTegic.value.DoubleValue
20.548

@<SCITEGIC>MOL_PROPERTY
VdW
SciTegic.value.DoubleValue
0.786

@<SCITEGIC>MOL_PROPERTY
VdW6
SciTegic.value.DoubleValue
-11.159

@<SCITEGIC>MOL_PROPERTY
VdW12
SciTegic.value.DoubleValue
11.944

@<SCITEGIC>MOL_PROPERTY
Bond
SciTegic.value.DoubleValue
0.316

@<SCITEGIC>MOL_PROPERTY
Angle
SciTegic.value.DoubleValue
2.038

@<SCITEGIC>MOL_PROPERTY
Pdih
SciTegic.value.DoubleValue
2.517

@<SCITEGIC>MOL_PROPERTY
Idih
SciTegic.value.DoubleValue
0.000

@<SCITEGIC>MOL_PROPERTY
Tether
SciTegic.value.DoubleValue
0.000

@<TRIPOS>MOLECULE
guest-s15_vm2.mol2 : vm2 ligand conformer 67
          29          28           1
SMALL
USER_CHARGES
 
@<TRIPOS>ATOM
       1    C1      20.169889   18.186745   20.084657 C.3        1 MOL1        -0.2426
       2    H1      20.233162   18.858309   19.218677 H          1 MOL1         0.0959
       3    H2      21.142054   18.188971   20.593059 H          1 MOL1         0.0959
       4    H3      19.994560   17.170111   19.709802 H          1 MOL1         0.0959
       5    C2      19.031884   18.616352   21.037668 C.3        1 MOL1        -0.1410
       6    H4      18.995829   17.938643   21.901053 H          1 MOL1         0.0948
       7    H5      18.070954   18.494393   20.518758 H          1 MOL1         0.0948
       8    C3      19.152577   20.085948   21.514771 C.3        1 MOL1        -0.1435
       9    H6      19.083019   20.748477   20.641158 H          1 MOL1         0.0948
      10    H7      18.282914   20.330516   22.138942 H          1 MOL1         0.0948
      11    C4      20.454828   20.424274   22.289388 C.3        1 MOL1        -0.1435
      12    H8      20.416680   21.478472   22.596287 H          1 MOL1         0.0948
      13    H9      21.312638   20.347434   21.608102 H          1 MOL1         0.0948
      14    C5      20.725505   19.546691   23.538329 C.3        1 MOL1        -0.1435
      15    H10     20.877201   18.505987   23.225986 H          1 MOL1         0.0948
      16    H11     21.672779   19.870167   23.991306 H          1 MOL1         0.0948
      17    C6      19.602099   19.631804   24.603206 C.3        1 MOL1        -0.1500
      18    H12     18.672157   19.206812   24.204661 H          1 MOL1         0.0948
      19    H13     19.398540   20.690320   24.811857 H          1 MOL1         0.0948
      20    C7      19.955644   18.927905   25.932762 C.3        1 MOL1         0.1162
      21    H14     20.905999   19.332980   26.293780 H          1 MOL1         0.0910
      22    C8      20.108461   17.406184   25.758640 C.3        1 MOL1        -0.2491
      23    H15     19.197567   16.961310   25.339046 H          1 MOL1         0.0959
      24    H16     20.946768   17.162796   25.095750 H          1 MOL1         0.0959
      25    H17     20.308417   16.925121   26.724001 H          1 MOL1         0.0959
      26    N1      18.935113   19.230096   26.994580 N.4        1 MOL1        -0.5987
      27    H18     18.847796   20.237396   27.157647 H          1 MOL1         0.3605
      28    H19     19.186242   18.797674   27.888245 H          1 MOL1         0.3605
      29    H20     18.009522   18.878885   26.734589 H          1 MOL1         0.3605
@<TRIPOS>BOND
    1     1     2    1
    2     1     3    1
    3     1     4    1
    4     1     5    1
    5     5     6    1
    6     5     7    1
    7     5     8    1
    8     8     9    1
    9     8    10    1
   10     8    11    1
   11    11    12    1
   12    11    13    1
   13    11    14    1
   14    14    15    1
   15    14    16    1
   16    14    17    1
   17    17    18    1
   18    17    19    1
   19    17    20    1
   20    20    21    1
   21    20    22    1
   22    22    23    1
   23    22    24    1
   24    22    25    1
   25    20    26    1
   26    26    27    1
   27    26    28    1
   28    26    29    1
@<TRIPOS>SUBSTRUCTURE
       1 MOL1            1 RESIDUE      1      MOL     
@<SCITEGIC>MOL_PROPERTY
VM2 Rank
SciTegic.value.IntegerValue
67

@<SCITEGIC>MOL_PROPERTY
Conf_Id
SciTegic.value.IntegerValue
2

@<SCITEGIC>MOL_PROPERTY
Probability
SciTegic.value.DoubleValue
0.27

@<SCITEGIC>MOL_PROPERTY
Sum Probability
SciTegic.value.DoubleValue
97.21

@<SCITEGIC>MOL_PROPERTY
Delta G
SciTegic.value.DoubleValue
2.186

@<SCITEGIC>MOL_PROPERTY
G
SciTegic.value.DoubleValue
35.888

@<SCITEGIC>MOL_PROPERTY
E
SciTegic.value.DoubleValue
-2.306

@<SCITEGIC>MOL_PROPERTY
-TS
SciTegic.value.DoubleValue
38.195

@<SCITEGIC>MOL_PROPERTY
U+W
SciTegic.value.DoubleValue
-26.451

@<SCITEGIC>MOL_PROPERTY
U
SciTegic.value.DoubleValue
26.060

@<SCITEGIC>MOL_PROPERTY
W
SciTegic.value.DoubleValue
-52.511

@<SCITEGIC>MOL_PROPERTY
W(PB)
SciTegic.value.DoubleValue
-54.927

@<SCITEGIC>MOL_PROPERTY
W(SA)
SciTegic.value.DoubleValue
2.416

@<SCITEGIC>MOL_PROPERTY
Valence
SciTegic.value.DoubleValue
5.062

@<SCITEGIC>MOL_PROPERTY
Coulomb
SciTegic.value.DoubleValue
19.918

@<SCITEGIC>MOL_PROPERTY
VdW
SciTegic.value.DoubleValue
1.080

@<SCITEGIC>MOL_PROPERTY
VdW6
SciTegic.value.DoubleValue
-10.856

@<SCITEGIC>MOL_PROPERTY
VdW12
SciTegic.value.DoubleValue
11.937

@<SCITEGIC>MOL_PROPERTY
Bond
SciTegic.value.DoubleValue
0.323

@<SCITEGIC>MOL_PROPERTY
Angle
SciTegic.value.DoubleValue
2.057

@<SCITEGIC>MOL_PROPERTY
Pdih
SciTegic.value.DoubleValue
2.682

@<SCITEGIC>MOL_PROPERTY
Idih
SciTegic.value.DoubleValue
0.000

@<SCITEGIC>MOL_PROPERTY
Tether
SciTegic.value.DoubleValue
0.000

@<TRIPOS>MOLECULE
guest-s15_vm2.mol2 : vm2 ligand conformer 68
          29          28           1
SMALL
USER_CHARGES
 
@<TRIPOS>ATOM
       1    C1      18.908241   19.832129   19.930623 C.3        1 MOL1        -0.2426
       2    H1      18.220963   20.021607   20.764577 H          1 MOL1         0.0959
       3    H2      19.390058   20.780249   19.658850 H          1 MOL1         0.0959
       4    H3      18.305780   19.503247   19.074056 H          1 MOL1         0.0959
       5    C2      19.959401   18.760181   20.296621 C.3        1 MOL1        -0.1410
       6    H4      20.544486   18.517854   19.398523 H          1 MOL1         0.0948
       7    H5      19.454348   17.828708   20.584887 H          1 MOL1         0.0948
       8    C3      20.935661   19.209626   21.413597 C.3        1 MOL1        -0.1435
       9    H6      21.660426   18.404136   21.595247 H          1 MOL1         0.0948
      10    H7      21.521781   20.063814   21.047624 H          1 MOL1         0.0948
      11    C4      20.272977   19.603935   22.758930 C.3        1 MOL1        -0.1435
      12    H8      19.622541   20.476603   22.614232 H          1 MOL1         0.0948
      13    H9      21.068384   19.929334   23.441957 H          1 MOL1         0.0948
      14    C5      19.468370   18.452532   23.413346 C.3        1 MOL1        -0.1435
      15    H10     18.660292   18.141596   22.738704 H          1 MOL1         0.0948
      16    H11     20.112549   17.572590   23.540002 H          1 MOL1         0.0948
      17    C6      18.830141   18.847123   24.770471 C.3        1 MOL1        -0.1500
      18    H12     18.256158   17.993715   25.155166 H          1 MOL1         0.0948
      19    H13     18.100613   19.647609   24.589955 H          1 MOL1         0.0948
      20    C7      19.826300   19.320183   25.855496 C.3        1 MOL1         0.1162
      21    H14     20.381855   20.177777   25.465088 H          1 MOL1         0.0910
      22    C8      20.832920   18.220198   26.236530 C.3        1 MOL1        -0.2491
      23    H15     21.469276   17.951679   25.385244 H          1 MOL1         0.0959
      24    H16     21.494795   18.563632   27.041044 H          1 MOL1         0.0959
      25    H17     20.318992   17.314383   26.581503 H          1 MOL1         0.0959
      26    N1      19.101989   19.810093   27.078386 N.4        1 MOL1        -0.5987
      27    H18     18.555229   19.062228   27.513673 H          1 MOL1         0.3605
      28    H19     18.456398   20.572821   26.854070 H          1 MOL1         0.3605
      29    H20     19.755228   20.161489   27.784414 H          1 MOL1         0.3605
@<TRIPOS>BOND
    1     1     2    1
    2     1     3    1
    3     1     4    1
    4     1     5    1
    5     5     6    1
    6     5     7    1
    7     5     8    1
    8     8     9    1
    9     8    10    1
   10     8    11    1
   11    11    12    1
   12    11    13    1
   13    11    14    1
   14    14    15    1
   15    14    16    1
   16    14    17    1
   17    17    18    1
   18    17    19    1
   19    17    20    1
   20    20    21    1
   21    20    22    1
   22    22    23    1
   23    22    24    1
   24    22    25    1
   25    20    26    1
   26    26    27    1
   27    26    28    1
   28    26    29    1
@<TRIPOS>SUBSTRUCTURE
       1 MOL1            1 RESIDUE      1      MOL     
@<SCITEGIC>MOL_PROPERTY
VM2 Rank
SciTegic.value.IntegerValue
68

@<SCITEGIC>MOL_PROPERTY
Conf_Id
SciTegic.value.IntegerValue
320

@<SCITEGIC>MOL_PROPERTY
Probability
SciTegic.value.DoubleValue
0.25

@<SCITEGIC>MOL_PROPERTY
Sum Probability
SciTegic.value.DoubleValue
97.45

@<SCITEGIC>MOL_PROPERTY
Delta G
SciTegic.value.DoubleValue
2.233

@<SCITEGIC>MOL_PROPERTY
G
SciTegic.value.DoubleValue
35.935

@<SCITEGIC>MOL_PROPERTY
E
SciTegic.value.DoubleValue
-2.151

@<SCITEGIC>MOL_PROPERTY
-TS
SciTegic.value.DoubleValue
38.086

@<SCITEGIC>MOL_PROPERTY
U+W
SciTegic.value.DoubleValue
-26.296

@<SCITEGIC>MOL_PROPERTY
U
SciTegic.value.DoubleValue
26.049

@<SCITEGIC>MOL_PROPERTY
W
SciTegic.value.DoubleValue
-52.345

@<SCITEGIC>MOL_PROPERTY
W(PB)
SciTegic.value.DoubleValue
-54.781

@<SCITEGIC>MOL_PROPERTY
W(SA)
SciTegic.value.DoubleValue
2.436

@<SCITEGIC>MOL_PROPERTY
Valence
SciTegic.value.DoubleValue
4.964

@<SCITEGIC>MOL_PROPERTY
Coulomb
SciTegic.value.DoubleValue
19.934

@<SCITEGIC>MOL_PROPERTY
VdW
SciTegic.value.DoubleValue
1.150

@<SCITEGIC>MOL_PROPERTY
VdW6
SciTegic.value.DoubleValue
-10.616

@<SCITEGIC>MOL_PROPERTY
VdW12
SciTegic.value.DoubleValue
11.766

@<SCITEGIC>MOL_PROPERTY
Bond
SciTegic.value.DoubleValue
0.316

@<SCITEGIC>MOL_PROPERTY
Angle
SciTegic.value.DoubleValue
2.146

@<SCITEGIC>MOL_PROPERTY
Pdih
SciTegic.value.DoubleValue
2.502

@<SCITEGIC>MOL_PROPERTY
Idih
SciTegic.value.DoubleValue
0.000

@<SCITEGIC>MOL_PROPERTY
Tether
SciTegic.value.DoubleValue
0.000

@<TRIPOS>MOLECULE
guest-s15_vm2.mol2 : vm2 ligand conformer 69
          29          28           1
SMALL
USER_CHARGES
 
@<TRIPOS>ATOM
       1    C1      18.967953   18.329434   20.195281 C.3        1 MOL1        -0.2426
       2    H1      18.101703   18.515278   20.842317 H          1 MOL1         0.0959
       3    H2      18.918516   19.023927   19.346663 H          1 MOL1         0.0959
       4    H3      18.874097   17.309355   19.801043 H          1 MOL1         0.0959
       5    C2      20.296426   18.491438   20.967784 C.3        1 MOL1        -0.1410
       6    H4      21.125776   18.191986   20.312016 H          1 MOL1         0.0948
       7    H5      20.318365   17.795986   21.817423 H          1 MOL1         0.0948
       8    C3      20.550330   19.940588   21.454989 C.3        1 MOL1        -0.1435
       9    H6      21.533272   19.985972   21.942157 H          1 MOL1         0.0948
      10    H7      20.626143   20.599954   20.579509 H          1 MOL1         0.0948
      11    C4      19.471928   20.514159   22.413461 C.3        1 MOL1        -0.1435
      12    H8      18.529070   20.637969   21.864271 H          1 MOL1         0.0948
      13    H9      19.772419   21.527330   22.713703 H          1 MOL1         0.0948
      14    C5      19.202875   19.671899   23.686957 C.3        1 MOL1        -0.1435
      15    H10     18.410152   20.168544   24.261295 H          1 MOL1         0.0948
      16    H11     18.801059   18.692712   23.398078 H          1 MOL1         0.0948
      17    C6      20.459275   19.495164   24.582376 C.3        1 MOL1        -0.1500
      18    H12     20.890791   20.481536   24.796872 H          1 MOL1         0.0948
      19    H13     21.229531   18.939930   24.032714 H          1 MOL1         0.0948
      20    C7      20.203402   18.768701   25.923712 C.3        1 MOL1         0.1162
      21    H14     21.157125   18.729239   26.459060 H          1 MOL1         0.0910
      22    C8      19.727066   17.320764   25.713946 C.3        1 MOL1        -0.2491
      23    H15     18.727302   17.283714   25.265213 H          1 MOL1         0.0959
      24    H16     20.418038   16.773813   25.060507 H          1 MOL1         0.0959
      25    H17     19.683975   16.788671   26.672172 H          1 MOL1         0.0959
      26    N1      19.256744   19.523851   26.815494 N.4        1 MOL1        -0.5987
      27    H18     19.147960   19.061272   27.722568 H          1 MOL1         0.3605
      28    H19     18.327488   19.595815   26.393923 H          1 MOL1         0.3605
      29    H20     19.589063   20.475728   26.994839 H          1 MOL1         0.3605
@<TRIPOS>BOND
    1     1     2    1
    2     1     3    1
    3     1     4    1
    4     1     5    1
    5     5     6    1
    6     5     7    1
    7     5     8    1
    8     8     9    1
    9     8    10    1
   10     8    11    1
   11    11    12    1
   12    11    13    1
   13    11    14    1
   14    14    15    1
   15    14    16    1
   16    14    17    1
   17    17    18    1
   18    17    19    1
   19    17    20    1
   20    20    21    1
   21    20    22    1
   22    22    23    1
   23    22    24    1
   24    22    25    1
   25    20    26    1
   26    26    27    1
   27    26    28    1
   28    26    29    1
@<TRIPOS>SUBSTRUCTURE
       1 MOL1            1 RESIDUE      1      MOL     
@<SCITEGIC>MOL_PROPERTY
VM2 Rank
SciTegic.value.IntegerValue
69

@<SCITEGIC>MOL_PROPERTY
Conf_Id
SciTegic.value.IntegerValue
187

@<SCITEGIC>MOL_PROPERTY
Probability
SciTegic.value.DoubleValue
0.23

@<SCITEGIC>MOL_PROPERTY
Sum Probability
SciTegic.value.DoubleValue
97.68

@<SCITEGIC>MOL_PROPERTY
Delta G
SciTegic.value.DoubleValue
2.278

@<SCITEGIC>MOL_PROPERTY
G
SciTegic.value.DoubleValue
35.980

@<SCITEGIC>MOL_PROPERTY
E
SciTegic.value.DoubleValue
-2.349

@<SCITEGIC>MOL_PROPERTY
-TS
SciTegic.value.DoubleValue
38.329

@<SCITEGIC>MOL_PROPERTY
U+W
SciTegic.value.DoubleValue
-26.494

@<SCITEGIC>MOL_PROPERTY
U
SciTegic.value.DoubleValue
26.082

@<SCITEGIC>MOL_PROPERTY
W
SciTegic.value.DoubleValue
-52.576

@<SCITEGIC>MOL_PROPERTY
W(PB)
SciTegic.value.DoubleValue
-54.968

@<SCITEGIC>MOL_PROPERTY
W(SA)
SciTegic.value.DoubleValue
2.392

@<SCITEGIC>MOL_PROPERTY
Valence
SciTegic.value.DoubleValue
5.053

@<SCITEGIC>MOL_PROPERTY
Coulomb
SciTegic.value.DoubleValue
19.931

@<SCITEGIC>MOL_PROPERTY
VdW
SciTegic.value.DoubleValue
1.098

@<SCITEGIC>MOL_PROPERTY
VdW6
SciTegic.value.DoubleValue
-11.343

@<SCITEGIC>MOL_PROPERTY
VdW12
SciTegic.value.DoubleValue
12.440

@<SCITEGIC>MOL_PROPERTY
Bond
SciTegic.value.DoubleValue
0.355

@<SCITEGIC>MOL_PROPERTY
Angle
SciTegic.value.DoubleValue
2.147

@<SCITEGIC>MOL_PROPERTY
Pdih
SciTegic.value.DoubleValue
2.552

@<SCITEGIC>MOL_PROPERTY
Idih
SciTegic.value.DoubleValue
0.000

@<SCITEGIC>MOL_PROPERTY
Tether
SciTegic.value.DoubleValue
0.000

@<TRIPOS>MOLECULE
guest-s15_vm2.mol2 : vm2 ligand conformer 70
          29          28           1
SMALL
USER_CHARGES
 
@<TRIPOS>ATOM
       1    C1      20.501300   20.130451   20.075803 C.3        1 MOL1        -0.2426
       2    H1      21.406379   19.802720   20.602140 H          1 MOL1         0.0959
       3    H2      20.376853   19.503897   19.183131 H          1 MOL1         0.0959
       4    H3      20.667831   21.162658   19.741711 H          1 MOL1         0.0959
       5    C2      19.256173   20.050431   20.987497 C.3        1 MOL1        -0.1410
       6    H4      18.399420   20.486666   20.455321 H          1 MOL1         0.0948
       7    H5      19.407441   20.675430   21.877715 H          1 MOL1         0.0948
       8    C3      18.893478   18.602770   21.404914 C.3        1 MOL1        -0.1435
       9    H6      17.970409   18.622923   21.998963 H          1 MOL1         0.0948
      10    H7      18.647837   18.025962   20.502718 H          1 MOL1         0.0948
      11    C4      19.998143   17.844478   22.189549 C.3        1 MOL1        -0.1435
      12    H8      20.850860   17.660014   21.522589 H          1 MOL1         0.0948
      13    H9      19.616626   16.850397   22.460168 H          1 MOL1         0.0948
      14    C5      20.511085   18.550915   23.471345 C.3        1 MOL1        -0.1435
      15    H10     21.308021   17.928845   23.898091 H          1 MOL1         0.0948
      16    H11     20.980928   19.508019   23.209161 H          1 MOL1         0.0948
      17    C6      19.406303   18.782630   24.534620 C.3        1 MOL1        -0.1500
      18    H12     18.953099   17.822236   24.813628 H          1 MOL1         0.0948
      19    H13     18.606631   19.388099   24.091046 H          1 MOL1         0.0948
      20    C7      19.906507   19.510720   25.803324 C.3        1 MOL1         0.1162
      21    H14     20.405402   20.434580   25.494795 H          1 MOL1         0.0910
      22    C8      20.906786   18.660738   26.607454 C.3        1 MOL1        -0.2491
      23    H15     20.472894   17.691140   26.881900 H          1 MOL1         0.0959
      24    H16     21.825124   18.478075   26.037963 H          1 MOL1         0.0959
      25    H17     21.196848   19.176779   27.530990 H          1 MOL1         0.0959
      26    N1      18.756225   19.922868   26.679494 N.4        1 MOL1        -0.5987
      27    H18     18.098430   20.527546   26.179020 H          1 MOL1         0.3605
      28    H19     19.079554   20.439796   27.502262 H          1 MOL1         0.3605
      29    H20     18.232713   19.110077   27.015763 H          1 MOL1         0.3605
@<TRIPOS>BOND
    1     1     2    1
    2     1     3    1
    3     1     4    1
    4     1     5    1
    5     5     6    1
    6     5     7    1
    7     5     8    1
    8     8     9    1
    9     8    10    1
   10     8    11    1
   11    11    12    1
   12    11    13    1
   13    11    14    1
   14    14    15    1
   15    14    16    1
   16    14    17    1
   17    17    18    1
   18    17    19    1
   19    17    20    1
   20    20    21    1
   21    20    22    1
   22    22    23    1
   23    22    24    1
   24    22    25    1
   25    20    26    1
   26    26    27    1
   27    26    28    1
   28    26    29    1
@<TRIPOS>SUBSTRUCTURE
       1 MOL1            1 RESIDUE      1      MOL     
@<SCITEGIC>MOL_PROPERTY
VM2 Rank
SciTegic.value.IntegerValue
70

@<SCITEGIC>MOL_PROPERTY
Conf_Id
SciTegic.value.IntegerValue
17

@<SCITEGIC>MOL_PROPERTY
Probability
SciTegic.value.DoubleValue
0.19

@<SCITEGIC>MOL_PROPERTY
Sum Probability
SciTegic.value.DoubleValue
97.87

@<SCITEGIC>MOL_PROPERTY
Delta G
SciTegic.value.DoubleValue
2.393

@<SCITEGIC>MOL_PROPERTY
G
SciTegic.value.DoubleValue
36.096

@<SCITEGIC>MOL_PROPERTY
E
SciTegic.value.DoubleValue
-2.043

@<SCITEGIC>MOL_PROPERTY
-TS
SciTegic.value.DoubleValue
38.138

@<SCITEGIC>MOL_PROPERTY
U+W
SciTegic.value.DoubleValue
-26.187

@<SCITEGIC>MOL_PROPERTY
U
SciTegic.value.DoubleValue
26.467

@<SCITEGIC>MOL_PROPERTY
W
SciTegic.value.DoubleValue
-52.654

@<SCITEGIC>MOL_PROPERTY
W(PB)
SciTegic.value.DoubleValue
-55.084

@<SCITEGIC>MOL_PROPERTY
W(SA)
SciTegic.value.DoubleValue
2.430

@<SCITEGIC>MOL_PROPERTY
Valence
SciTegic.value.DoubleValue
5.199

@<SCITEGIC>MOL_PROPERTY
Coulomb
SciTegic.value.DoubleValue
20.031

@<SCITEGIC>MOL_PROPERTY
VdW
SciTegic.value.DoubleValue
1.237

@<SCITEGIC>MOL_PROPERTY
VdW6
SciTegic.value.DoubleValue
-10.693

@<SCITEGIC>MOL_PROPERTY
VdW12
SciTegic.value.DoubleValue
11.930

@<SCITEGIC>MOL_PROPERTY
Bond
SciTegic.value.DoubleValue
0.334

@<SCITEGIC>MOL_PROPERTY
Angle
SciTegic.value.DoubleValue
2.222

@<SCITEGIC>MOL_PROPERTY
Pdih
SciTegic.value.DoubleValue
2.643

@<SCITEGIC>MOL_PROPERTY
Idih
SciTegic.value.DoubleValue
0.000

@<SCITEGIC>MOL_PROPERTY
Tether
SciTegic.value.DoubleValue
0.000

@<TRIPOS>MOLECULE
guest-s15_vm2.mol2 : vm2 ligand conformer 71
          29          28           1
SMALL
USER_CHARGES
 
@<TRIPOS>ATOM
       1    C1      19.366517   19.196458   19.788019 C.3        1 MOL1        -0.2426
       2    H1      18.378283   19.431610   20.202360 H          1 MOL1         0.0959
       3    H2      19.773811   20.107635   19.331090 H          1 MOL1         0.0959
       4    H3      19.223332   18.455549   18.990926 H          1 MOL1         0.0959
       5    C2      20.318890   18.646638   20.873605 C.3        1 MOL1        -0.1410
       6    H4      21.252305   18.321629   20.393361 H          1 MOL1         0.0948
       7    H5      19.883261   17.745874   21.325964 H          1 MOL1         0.0948
       8    C3      20.663858   19.684927   21.971188 C.3        1 MOL1        -0.1435
       9    H6      21.389786   19.241554   22.665493 H          1 MOL1         0.0948
      10    H7      21.182927   20.533335   21.504567 H          1 MOL1         0.0948
      11    C4      19.448808   20.227337   22.770614 C.3        1 MOL1        -0.1435
      12    H8      18.800487   20.803606   22.097321 H          1 MOL1         0.0948
      13    H9      19.811320   20.952241   23.511356 H          1 MOL1         0.0948
      14    C5      18.593670   19.145287   23.483099 C.3        1 MOL1        -0.1435
      15    H10     17.773258   19.640037   24.019740 H          1 MOL1         0.0948
      16    H11     18.106439   18.511719   22.730120 H          1 MOL1         0.0948
      17    C6      19.380740   18.240016   24.467696 C.3        1 MOL1        -0.1500
      18    H12     20.088002   17.621383   23.900694 H          1 MOL1         0.0948
      19    H13     18.682625   17.538977   24.943960 H          1 MOL1         0.0948
      20    C7      20.149976   19.016354   25.559102 C.3        1 MOL1         0.1162
      21    H14     20.839468   19.708831   25.067149 H          1 MOL1         0.0910
      22    C8      20.975343   18.050001   26.422982 C.3        1 MOL1        -0.2491
      23    H15     21.685155   17.485220   25.805797 H          1 MOL1         0.0959
      24    H16     21.553133   18.599626   27.176263 H          1 MOL1         0.0959
      25    H17     20.329174   17.332502   26.944092 H          1 MOL1         0.0959
      26    N1      19.238197   19.848982   26.417694 N.4        1 MOL1        -0.5987
      27    H18     18.707037   20.518006   25.853750 H          1 MOL1         0.3605
      28    H19     19.763956   20.382317   27.115998 H          1 MOL1         0.3605
      29    H20     18.564295   19.265200   26.920128 H          1 MOL1         0.3605
@<TRIPOS>BOND
    1     1     2    1
    2     1     3    1
    3     1     4    1
    4     1     5    1
    5     5     6    1
    6     5     7    1
    7     5     8    1
    8     8     9    1
    9     8    10    1
   10     8    11    1
   11    11    12    1
   12    11    13    1
   13    11    14    1
   14    14    15    1
   15    14    16    1
   16    14    17    1
   17    17    18    1
   18    17    19    1
   19    17    20    1
   20    20    21    1
   21    20    22    1
   22    22    23    1
   23    22    24    1
   24    22    25    1
   25    20    26    1
   26    26    27    1
   27    26    28    1
   28    26    29    1
@<TRIPOS>SUBSTRUCTURE
       1 MOL1            1 RESIDUE      1      MOL     
@<SCITEGIC>MOL_PROPERTY
VM2 Rank
SciTegic.value.IntegerValue
71

@<SCITEGIC>MOL_PROPERTY
Conf_Id
SciTegic.value.IntegerValue
197

@<SCITEGIC>MOL_PROPERTY
Probability
SciTegic.value.DoubleValue
0.17

@<SCITEGIC>MOL_PROPERTY
Sum Probability
SciTegic.value.DoubleValue
98.04

@<SCITEGIC>MOL_PROPERTY
Delta G
SciTegic.value.DoubleValue
2.435

@<SCITEGIC>MOL_PROPERTY
G
SciTegic.value.DoubleValue
36.138

@<SCITEGIC>MOL_PROPERTY
E
SciTegic.value.DoubleValue
-2.353

@<SCITEGIC>MOL_PROPERTY
-TS
SciTegic.value.DoubleValue
38.491

@<SCITEGIC>MOL_PROPERTY
U+W
SciTegic.value.DoubleValue
-26.498

@<SCITEGIC>MOL_PROPERTY
U
SciTegic.value.DoubleValue
25.928

@<SCITEGIC>MOL_PROPERTY
W
SciTegic.value.DoubleValue
-52.425

@<SCITEGIC>MOL_PROPERTY
W(PB)
SciTegic.value.DoubleValue
-54.831

@<SCITEGIC>MOL_PROPERTY
W(SA)
SciTegic.value.DoubleValue
2.405

@<SCITEGIC>MOL_PROPERTY
Valence
SciTegic.value.DoubleValue
4.806

@<SCITEGIC>MOL_PROPERTY
Coulomb
SciTegic.value.DoubleValue
20.407

@<SCITEGIC>MOL_PROPERTY
VdW
SciTegic.value.DoubleValue
0.715

@<SCITEGIC>MOL_PROPERTY
VdW6
SciTegic.value.DoubleValue
-11.781

@<SCITEGIC>MOL_PROPERTY
VdW12
SciTegic.value.DoubleValue
12.496

@<SCITEGIC>MOL_PROPERTY
Bond
SciTegic.value.DoubleValue
0.347

@<SCITEGIC>MOL_PROPERTY
Angle
SciTegic.value.DoubleValue
2.053

@<SCITEGIC>MOL_PROPERTY
Pdih
SciTegic.value.DoubleValue
2.406

@<SCITEGIC>MOL_PROPERTY
Idih
SciTegic.value.DoubleValue
0.000

@<SCITEGIC>MOL_PROPERTY
Tether
SciTegic.value.DoubleValue
0.000

@<TRIPOS>MOLECULE
guest-s15_vm2.mol2 : vm2 ligand conformer 72
          29          28           1
SMALL
USER_CHARGES
 
@<TRIPOS>ATOM
       1    C1      19.204127   20.870315   20.911425 C.3        1 MOL1        -0.2426
       2    H1      19.133074   21.035189   21.993193 H          1 MOL1         0.0959
       3    H2      20.118708   21.356977   20.548533 H          1 MOL1         0.0959
       4    H3      18.347802   21.372826   20.443377 H          1 MOL1         0.0959
       5    C2      19.202874   19.364142   20.565533 C.3        1 MOL1        -0.1410
       6    H4      19.158754   19.253051   19.473130 H          1 MOL1         0.0948
       7    H5      18.287961   18.895205   20.951424 H          1 MOL1         0.0948
       8    C3      20.453262   18.610910   21.086669 C.3        1 MOL1        -0.1435
       9    H6      20.394769   17.562087   20.764704 H          1 MOL1         0.0948
      10    H7      21.346029   19.025492   20.598615 H          1 MOL1         0.0948
      11    C4      20.659815   18.656160   22.622386 C.3        1 MOL1        -0.1435
      12    H8      20.825658   19.693265   22.940041 H          1 MOL1         0.0948
      13    H9      21.585230   18.114672   22.862179 H          1 MOL1         0.0948
      14    C5      19.488863   18.028131   23.419366 C.3        1 MOL1        -0.1435
      15    H10     18.567996   18.601852   23.255717 H          1 MOL1         0.0948
      16    H11     19.292326   17.018806   23.032473 H          1 MOL1         0.0948
      17    C6      19.775247   17.926201   24.939254 C.3        1 MOL1        -0.1500
      18    H12     20.639573   17.266376   25.092592 H          1 MOL1         0.0948
      19    H13     18.924827   17.436732   25.432253 H          1 MOL1         0.0948
      20    C7      20.050331   19.284321   25.622701 C.3        1 MOL1         0.1162
      21    H14     20.907859   19.751232   25.129356 H          1 MOL1         0.0910
      22    C8      20.404490   19.076263   27.103534 C.3        1 MOL1        -0.2491
      23    H15     20.638511   20.033766   27.584991 H          1 MOL1         0.0959
      24    H16     19.573008   18.613201   27.649540 H          1 MOL1         0.0959
      25    H17     21.283824   18.428237   27.206350 H          1 MOL1         0.0959
      26    N1      18.896991   20.239558   25.483133 N.4        1 MOL1        -0.5987
      27    H18     19.106571   21.145146   25.912954 H          1 MOL1         0.3605
      28    H19     18.054416   19.873243   25.934291 H          1 MOL1         0.3605
      29    H20     18.672790   20.408124   24.498844 H          1 MOL1         0.3605
@<TRIPOS>BOND
    1     1     2    1
    2     1     3    1
    3     1     4    1
    4     1     5    1
    5     5     6    1
    6     5     7    1
    7     5     8    1
    8     8     9    1
    9     8    10    1
   10     8    11    1
   11    11    12    1
   12    11    13    1
   13    11    14    1
   14    14    15    1
   15    14    16    1
   16    14    17    1
   17    17    18    1
   18    17    19    1
   19    17    20    1
   20    20    21    1
   21    20    22    1
   22    22    23    1
   23    22    24    1
   24    22    25    1
   25    20    26    1
   26    26    27    1
   27    26    28    1
   28    26    29    1
@<TRIPOS>SUBSTRUCTURE
       1 MOL1            1 RESIDUE      1      MOL     
@<SCITEGIC>MOL_PROPERTY
VM2 Rank
SciTegic.value.IntegerValue
72

@<SCITEGIC>MOL_PROPERTY
Conf_Id
SciTegic.value.IntegerValue
1503

@<SCITEGIC>MOL_PROPERTY
Probability
SciTegic.value.DoubleValue
0.17

@<SCITEGIC>MOL_PROPERTY
Sum Probability
SciTegic.value.DoubleValue
98.21

@<SCITEGIC>MOL_PROPERTY
Delta G
SciTegic.value.DoubleValue
2.462

@<SCITEGIC>MOL_PROPERTY
G
SciTegic.value.DoubleValue
36.164

@<SCITEGIC>MOL_PROPERTY
E
SciTegic.value.DoubleValue
-1.828

@<SCITEGIC>MOL_PROPERTY
-TS
SciTegic.value.DoubleValue
37.992

@<SCITEGIC>MOL_PROPERTY
U+W
SciTegic.value.DoubleValue
-25.972

@<SCITEGIC>MOL_PROPERTY
U
SciTegic.value.DoubleValue
26.280

@<SCITEGIC>MOL_PROPERTY
W
SciTegic.value.DoubleValue
-52.252

@<SCITEGIC>MOL_PROPERTY
W(PB)
SciTegic.value.DoubleValue
-54.677

@<SCITEGIC>MOL_PROPERTY
W(SA)
SciTegic.value.DoubleValue
2.424

@<SCITEGIC>MOL_PROPERTY
Valence
SciTegic.value.DoubleValue
4.388

@<SCITEGIC>MOL_PROPERTY
Coulomb
SciTegic.value.DoubleValue
21.061

@<SCITEGIC>MOL_PROPERTY
VdW
SciTegic.value.DoubleValue
0.832

@<SCITEGIC>MOL_PROPERTY
VdW6
SciTegic.value.DoubleValue
-10.644

@<SCITEGIC>MOL_PROPERTY
VdW12
SciTegic.value.DoubleValue
11.476

@<SCITEGIC>MOL_PROPERTY
Bond
SciTegic.value.DoubleValue
0.296

@<SCITEGIC>MOL_PROPERTY
Angle
SciTegic.value.DoubleValue
1.681

@<SCITEGIC>MOL_PROPERTY
Pdih
SciTegic.value.DoubleValue
2.411

@<SCITEGIC>MOL_PROPERTY
Idih
SciTegic.value.DoubleValue
0.000

@<SCITEGIC>MOL_PROPERTY
Tether
SciTegic.value.DoubleValue
0.000

@<TRIPOS>MOLECULE
guest-s15_vm2.mol2 : vm2 ligand conformer 73
          29          28           1
SMALL
USER_CHARGES
 
@<TRIPOS>ATOM
       1    C1      19.633249   18.983482   19.766872 C.3        1 MOL1        -0.2426
       2    H1      20.445262   19.544604   19.286567 H          1 MOL1         0.0959
       3    H2      20.025943   18.006819   20.075907 H          1 MOL1         0.0959
       4    H3      18.856351   18.804062   19.012524 H          1 MOL1         0.0959
       5    C2      19.052646   19.765166   20.966744 C.3        1 MOL1        -0.1410
       6    H4      18.254453   19.177664   21.439496 H          1 MOL1         0.0948
       7    H5      18.572662   20.680495   20.593499 H          1 MOL1         0.0948
       8    C3      20.121223   20.161085   22.017034 C.3        1 MOL1        -0.1435
       9    H6      20.855606   20.825249   21.541091 H          1 MOL1         0.0948
      10    H7      19.643900   20.763650   22.800972 H          1 MOL1         0.0948
      11    C4      20.877990   18.972133   22.667676 C.3        1 MOL1        -0.1435
      12    H8      21.607124   19.369748   23.386061 H          1 MOL1         0.0948
      13    H9      21.477131   18.461388   21.902294 H          1 MOL1         0.0948
      14    C5      19.976040   17.926601   23.376588 C.3        1 MOL1        -0.1435
      15    H10     19.349842   17.419643   22.630572 H          1 MOL1         0.0948
      16    H11     20.613015   17.139177   23.800665 H          1 MOL1         0.0948
      17    C6      19.061737   18.506120   24.489061 C.3        1 MOL1        -0.1500
      18    H12     18.507515   17.683298   24.959552 H          1 MOL1         0.0948
      19    H13     18.304052   19.149124   24.023725 H          1 MOL1         0.0948
      20    C7      19.799710   19.314947   25.581118 C.3        1 MOL1         0.1162
      21    H14     20.361426   20.117783   25.094475 H          1 MOL1         0.0910
      22    C8      20.786351   18.442395   26.377063 C.3        1 MOL1        -0.2491
      23    H15     20.274703   17.593199   26.846843 H          1 MOL1         0.0959
      24    H16     21.580623   18.050030   25.731450 H          1 MOL1         0.0959
      25    H17     21.269717   19.028769   27.168116 H          1 MOL1         0.0959
      26    N1      18.827053   19.984071   26.511845 N.4        1 MOL1        -0.5987
      27    H18     18.258644   19.297221   27.014700 H          1 MOL1         0.3605
      28    H19     18.186566   20.603368   26.006937 H          1 MOL1         0.3605
      29    H20     19.310991   20.551990   27.213218 H          1 MOL1         0.3605
@<TRIPOS>BOND
    1     1     2    1
    2     1     3    1
    3     1     4    1
    4     1     5    1
    5     5     6    1
    6     5     7    1
    7     5     8    1
    8     8     9    1
    9     8    10    1
   10     8    11    1
   11    11    12    1
   12    11    13    1
   13    11    14    1
   14    14    15    1
   15    14    16    1
   16    14    17    1
   17    17    18    1
   18    17    19    1
   19    17    20    1
   20    20    21    1
   21    20    22    1
   22    22    23    1
   23    22    24    1
   24    22    25    1
   25    20    26    1
   26    26    27    1
   27    26    28    1
   28    26    29    1
@<TRIPOS>SUBSTRUCTURE
       1 MOL1            1 RESIDUE      1      MOL     
@<SCITEGIC>MOL_PROPERTY
VM2 Rank
SciTegic.value.IntegerValue
73

@<SCITEGIC>MOL_PROPERTY
Conf_Id
SciTegic.value.IntegerValue
96

@<SCITEGIC>MOL_PROPERTY
Probability
SciTegic.value.DoubleValue
0.10

@<SCITEGIC>MOL_PROPERTY
Sum Probability
SciTegic.value.DoubleValue
98.31

@<SCITEGIC>MOL_PROPERTY
Delta G
SciTegic.value.DoubleValue
2.764

@<SCITEGIC>MOL_PROPERTY
G
SciTegic.value.DoubleValue
36.466

@<SCITEGIC>MOL_PROPERTY
E
SciTegic.value.DoubleValue
-2.130

@<SCITEGIC>MOL_PROPERTY
-TS
SciTegic.value.DoubleValue
38.596

@<SCITEGIC>MOL_PROPERTY
U+W
SciTegic.value.DoubleValue
-26.274

@<SCITEGIC>MOL_PROPERTY
U
SciTegic.value.DoubleValue
26.596

@<SCITEGIC>MOL_PROPERTY
W
SciTegic.value.DoubleValue
-52.870

@<SCITEGIC>MOL_PROPERTY
W(PB)
SciTegic.value.DoubleValue
-55.271

@<SCITEGIC>MOL_PROPERTY
W(SA)
SciTegic.value.DoubleValue
2.401

@<SCITEGIC>MOL_PROPERTY
Valence
SciTegic.value.DoubleValue
5.292

@<SCITEGIC>MOL_PROPERTY
Coulomb
SciTegic.value.DoubleValue
20.508

@<SCITEGIC>MOL_PROPERTY
VdW
SciTegic.value.DoubleValue
0.796

@<SCITEGIC>MOL_PROPERTY
VdW6
SciTegic.value.DoubleValue
-11.980

@<SCITEGIC>MOL_PROPERTY
VdW12
SciTegic.value.DoubleValue
12.776

@<SCITEGIC>MOL_PROPERTY
Bond
SciTegic.value.DoubleValue
0.357

@<SCITEGIC>MOL_PROPERTY
Angle
SciTegic.value.DoubleValue
2.346

@<SCITEGIC>MOL_PROPERTY
Pdih
SciTegic.value.DoubleValue
2.589

@<SCITEGIC>MOL_PROPERTY
Idih
SciTegic.value.DoubleValue
0.000

@<SCITEGIC>MOL_PROPERTY
Tether
SciTegic.value.DoubleValue
0.000

@<TRIPOS>MOLECULE
guest-s15_vm2.mol2 : vm2 ligand conformer 74
          29          28           1
SMALL
USER_CHARGES
 
@<TRIPOS>ATOM
       1    C1      18.497214   19.673803   20.313701 C.3        1 MOL1        -0.2426
       2    H1      18.804536   19.183869   19.380733 H          1 MOL1         0.0959
       3    H2      17.928712   18.949971   20.910727 H          1 MOL1         0.0959
       4    H3      17.817451   20.495551   20.054002 H          1 MOL1         0.0959
       5    C2      19.722395   20.208752   21.088702 C.3        1 MOL1        -0.1410
       6    H4      19.392260   20.684288   22.021759 H          1 MOL1         0.0948
       7    H5      20.195851   21.004184   20.496544 H          1 MOL1         0.0948
       8    C3      20.782454   19.118935   21.388998 C.3        1 MOL1        -0.1435
       9    H6      21.171466   18.732412   20.437027 H          1 MOL1         0.0948
      10    H7      21.641870   19.585018   21.888609 H          1 MOL1         0.0948
      11    C4      20.277329   17.921337   22.238281 C.3        1 MOL1        -0.1435
      12    H8      21.117894   17.235891   22.413129 H          1 MOL1         0.0948
      13    H9      19.546900   17.346883   21.653111 H          1 MOL1         0.0948
      14    C5      19.642122   18.294884   23.602507 C.3        1 MOL1        -0.1435
      15    H10     18.740857   18.897785   23.435367 H          1 MOL1         0.0948
      16    H11     19.302760   17.366383   24.079125 H          1 MOL1         0.0948
      17    C6      20.619136   19.039844   24.552528 C.3        1 MOL1        -0.1500
      18    H12     20.945403   19.976005   24.083327 H          1 MOL1         0.0948
      19    H13     21.526025   18.435767   24.687058 H          1 MOL1         0.0948
      20    C7      20.037823   19.383471   25.944285 C.3        1 MOL1         0.1162
      21    H14     20.805402   19.943872   26.486975 H          1 MOL1         0.0910
      22    C8      19.715624   18.123747   26.766986 C.3        1 MOL1        -0.2491
      23    H15     19.442737   18.396567   27.793769 H          1 MOL1         0.0959
      24    H16     18.878748   17.560530   26.337585 H          1 MOL1         0.0959
      25    H17     20.586911   17.459225   26.820135 H          1 MOL1         0.0959
      26    N1      18.841902   20.291228   25.858011 N.4        1 MOL1        -0.5987
      27    H18     19.061879   21.154760   25.353625 H          1 MOL1         0.3605
      28    H19     18.506420   20.556629   26.788429 H          1 MOL1         0.3605
      29    H20     18.066384   19.836565   25.369761 H          1 MOL1         0.3605
@<TRIPOS>BOND
    1     1     2    1
    2     1     3    1
    3     1     4    1
    4     1     5    1
    5     5     6    1
    6     5     7    1
    7     5     8    1
    8     8     9    1
    9     8    10    1
   10     8    11    1
   11    11    12    1
   12    11    13    1
   13    11    14    1
   14    14    15    1
   15    14    16    1
   16    14    17    1
   17    17    18    1
   18    17    19    1
   19    17    20    1
   20    20    21    1
   21    20    22    1
   22    22    23    1
   23    22    24    1
   24    22    25    1
   25    20    26    1
   26    26    27    1
   27    26    28    1
   28    26    29    1
@<TRIPOS>SUBSTRUCTURE
       1 MOL1            1 RESIDUE      1      MOL     
@<SCITEGIC>MOL_PROPERTY
VM2 Rank
SciTegic.value.IntegerValue
74

@<SCITEGIC>MOL_PROPERTY
Conf_Id
SciTegic.value.IntegerValue
327

@<SCITEGIC>MOL_PROPERTY
Probability
SciTegic.value.DoubleValue
0.10

@<SCITEGIC>MOL_PROPERTY
Sum Probability
SciTegic.value.DoubleValue
98.41

@<SCITEGIC>MOL_PROPERTY
Delta G
SciTegic.value.DoubleValue
2.784

@<SCITEGIC>MOL_PROPERTY
G
SciTegic.value.DoubleValue
36.486

@<SCITEGIC>MOL_PROPERTY
E
SciTegic.value.DoubleValue
-1.809

@<SCITEGIC>MOL_PROPERTY
-TS
SciTegic.value.DoubleValue
38.296

@<SCITEGIC>MOL_PROPERTY
U+W
SciTegic.value.DoubleValue
-25.954

@<SCITEGIC>MOL_PROPERTY
U
SciTegic.value.DoubleValue
26.775

@<SCITEGIC>MOL_PROPERTY
W
SciTegic.value.DoubleValue
-52.729

@<SCITEGIC>MOL_PROPERTY
W(PB)
SciTegic.value.DoubleValue
-55.142

@<SCITEGIC>MOL_PROPERTY
W(SA)
SciTegic.value.DoubleValue
2.414

@<SCITEGIC>MOL_PROPERTY
Valence
SciTegic.value.DoubleValue
5.136

@<SCITEGIC>MOL_PROPERTY
Coulomb
SciTegic.value.DoubleValue
20.511

@<SCITEGIC>MOL_PROPERTY
VdW
SciTegic.value.DoubleValue
1.129

@<SCITEGIC>MOL_PROPERTY
VdW6
SciTegic.value.DoubleValue
-11.263

@<SCITEGIC>MOL_PROPERTY
VdW12
SciTegic.value.DoubleValue
12.391

@<SCITEGIC>MOL_PROPERTY
Bond
SciTegic.value.DoubleValue
0.358

@<SCITEGIC>MOL_PROPERTY
Angle
SciTegic.value.DoubleValue
2.222

@<SCITEGIC>MOL_PROPERTY
Pdih
SciTegic.value.DoubleValue
2.556

@<SCITEGIC>MOL_PROPERTY
Idih
SciTegic.value.DoubleValue
0.000

@<SCITEGIC>MOL_PROPERTY
Tether
SciTegic.value.DoubleValue
0.000

@<TRIPOS>MOLECULE
guest-s15_vm2.mol2 : vm2 ligand conformer 75
          29          28           1
SMALL
USER_CHARGES
 
@<TRIPOS>ATOM
       1    C1      19.428702   19.956309   19.004629 C.3        1 MOL1        -0.2426
       2    H1      20.330952   20.574422   18.909051 H          1 MOL1         0.0959
       3    H2      19.639973   18.972601   18.565385 H          1 MOL1         0.0959
       4    H3      18.633568   20.426524   18.411580 H          1 MOL1         0.0959
       5    C2      19.001111   19.823894   20.481599 C.3        1 MOL1        -0.1410
       6    H4      18.078665   19.229466   20.542062 H          1 MOL1         0.0948
       7    H5      18.764090   20.819252   20.882768 H          1 MOL1         0.0948
       8    C3      20.103802   19.164300   21.339024 C.3        1 MOL1        -0.1435
       9    H6      20.339280   18.171784   20.930493 H          1 MOL1         0.0948
      10    H7      21.024223   19.761122   21.274652 H          1 MOL1         0.0948
      11    C4      19.678690   19.028141   22.818507 C.3        1 MOL1        -0.1435
      12    H8      18.763984   18.422383   22.880591 H          1 MOL1         0.0948
      13    H9      19.441847   20.026402   23.206127 H          1 MOL1         0.0948
      14    C5      20.792340   18.381545   23.676246 C.3        1 MOL1        -0.1435
      15    H10     21.141167   17.469641   23.172047 H          1 MOL1         0.0948
      16    H11     21.659109   19.055563   23.719614 H          1 MOL1         0.0948
      17    C6      20.365607   17.995343   25.117060 C.3        1 MOL1        -0.1500
      18    H12     21.207694   17.452881   25.567333 H          1 MOL1         0.0948
      19    H13     19.532039   17.281277   25.086755 H          1 MOL1         0.0948
      20    C7      20.003803   19.190567   26.030356 C.3        1 MOL1         0.1162
      21    H14     20.704579   20.005923   25.826279 H          1 MOL1         0.0910
      22    C8      20.142902   18.795195   27.509770 C.3        1 MOL1        -0.2491
      23    H15     19.469892   17.966637   27.763920 H          1 MOL1         0.0959
      24    H16     21.170160   18.483361   27.736258 H          1 MOL1         0.0959
      25    H17     19.903277   19.643354   28.162992 H          1 MOL1         0.0959
      26    N1      18.619042   19.720706   25.776809 N.4        1 MOL1        -0.5987
      27    H18     18.498706   20.000823   24.800838 H          1 MOL1         0.3605
      28    H19     18.419089   20.537997   26.360639 H          1 MOL1         0.3605
      29    H20     17.907739   19.014767   25.984831 H          1 MOL1         0.3605
@<TRIPOS>BOND
    1     1     2    1
    2     1     3    1
    3     1     4    1
    4     1     5    1
    5     5     6    1
    6     5     7    1
    7     5     8    1
    8     8     9    1
    9     8    10    1
   10     8    11    1
   11    11    12    1
   12    11    13    1
   13    11    14    1
   14    14    15    1
   15    14    16    1
   16    14    17    1
   17    17    18    1
   18    17    19    1
   19    17    20    1
   20    20    21    1
   21    20    22    1
   22    22    23    1
   23    22    24    1
   24    22    25    1
   25    20    26    1
   26    26    27    1
   27    26    28    1
   28    26    29    1
@<TRIPOS>SUBSTRUCTURE
       1 MOL1            1 RESIDUE      1      MOL     
@<SCITEGIC>MOL_PROPERTY
VM2 Rank
SciTegic.value.IntegerValue
75

@<SCITEGIC>MOL_PROPERTY
Conf_Id
SciTegic.value.IntegerValue
265

@<SCITEGIC>MOL_PROPERTY
Probability
SciTegic.value.DoubleValue
0.08

@<SCITEGIC>MOL_PROPERTY
Sum Probability
SciTegic.value.DoubleValue
98.49

@<SCITEGIC>MOL_PROPERTY
Delta G
SciTegic.value.DoubleValue
2.889

@<SCITEGIC>MOL_PROPERTY
G
SciTegic.value.DoubleValue
36.591

@<SCITEGIC>MOL_PROPERTY
E
SciTegic.value.DoubleValue
-0.796

@<SCITEGIC>MOL_PROPERTY
-TS
SciTegic.value.DoubleValue
37.387

@<SCITEGIC>MOL_PROPERTY
U+W
SciTegic.value.DoubleValue
-24.941

@<SCITEGIC>MOL_PROPERTY
U
SciTegic.value.DoubleValue
27.200

@<SCITEGIC>MOL_PROPERTY
W
SciTegic.value.DoubleValue
-52.141

@<SCITEGIC>MOL_PROPERTY
W(PB)
SciTegic.value.DoubleValue
-54.645

@<SCITEGIC>MOL_PROPERTY
W(SA)
SciTegic.value.DoubleValue
2.504

@<SCITEGIC>MOL_PROPERTY
Valence
SciTegic.value.DoubleValue
4.957

@<SCITEGIC>MOL_PROPERTY
Coulomb
SciTegic.value.DoubleValue
21.196

@<SCITEGIC>MOL_PROPERTY
VdW
SciTegic.value.DoubleValue
1.046

@<SCITEGIC>MOL_PROPERTY
VdW6
SciTegic.value.DoubleValue
-9.034

@<SCITEGIC>MOL_PROPERTY
VdW12
SciTegic.value.DoubleValue
10.080

@<SCITEGIC>MOL_PROPERTY
Bond
SciTegic.value.DoubleValue
0.244

@<SCITEGIC>MOL_PROPERTY
Angle
SciTegic.value.DoubleValue
1.596

@<SCITEGIC>MOL_PROPERTY
Pdih
SciTegic.value.DoubleValue
3.118

@<SCITEGIC>MOL_PROPERTY
Idih
SciTegic.value.DoubleValue
0.000

@<SCITEGIC>MOL_PROPERTY
Tether
SciTegic.value.DoubleValue
0.000

@<TRIPOS>MOLECULE
guest-s15_vm2.mol2 : vm2 ligand conformer 76
          29          28           1
SMALL
USER_CHARGES
 
@<TRIPOS>ATOM
       1    C1      20.618172   20.659161   20.122576 C.3        1 MOL1        -0.2426
       2    H1      20.050225   21.546360   20.431698 H          1 MOL1         0.0959
       3    H2      21.613088   20.712182   20.583625 H          1 MOL1         0.0959
       4    H3      20.748518   20.704923   19.033562 H          1 MOL1         0.0959
       5    C2      19.886373   19.362759   20.529648 C.3        1 MOL1        -0.1410
       6    H4      20.460985   18.493886   20.179206 H          1 MOL1         0.0948
       7    H5      18.910536   19.322128   20.025704 H          1 MOL1         0.0948
       8    C3      19.688964   19.274717   22.059030 C.3        1 MOL1        -0.1435
       9    H6      20.672429   19.324553   22.543312 H          1 MOL1         0.0948
      10    H7      19.108565   20.141684   22.403264 H          1 MOL1         0.0948
      11    C4      18.971103   17.968448   22.471176 C.3        1 MOL1        -0.1435
      12    H8      19.616152   17.109847   22.238803 H          1 MOL1         0.0948
      13    H9      18.069605   17.847303   21.854708 H          1 MOL1         0.0948
      14    C5      18.545970   17.906576   23.961196 C.3        1 MOL1        -0.1435
      15    H10     17.804253   18.687692   24.171248 H          1 MOL1         0.0948
      16    H11     18.017919   16.954814   24.111769 H          1 MOL1         0.0948
      17    C6      19.717122   17.968099   24.979359 C.3        1 MOL1        -0.1500
      18    H12     20.567798   17.397740   24.583223 H          1 MOL1         0.0948
      19    H13     19.411556   17.451790   25.899142 H          1 MOL1         0.0948
      20    C7      20.172475   19.397573   25.354861 C.3        1 MOL1         0.1162
      21    H14     20.408703   19.947146   24.441181 H          1 MOL1         0.0910
      22    C8      21.441820   19.341800   26.219352 C.3        1 MOL1        -0.2491
      23    H15     21.259549   18.804606   27.158584 H          1 MOL1         0.0959
      24    H16     22.254102   18.832152   25.686227 H          1 MOL1         0.0959
      25    H17     21.788888   20.352908   26.465551 H          1 MOL1         0.0959
      26    N1      19.094002   20.176866   26.056801 N.4        1 MOL1        -0.5987
      27    H18     19.405275   21.125584   26.284066 H          1 MOL1         0.3605
      28    H19     18.819677   19.726241   26.933859 H          1 MOL1         0.3605
      29    H20     18.254615   20.259855   25.477207 H          1 MOL1         0.3605
@<TRIPOS>BOND
    1     1     2    1
    2     1     3    1
    3     1     4    1
    4     1     5    1
    5     5     6    1
    6     5     7    1
    7     5     8    1
    8     8     9    1
    9     8    10    1
   10     8    11    1
   11    11    12    1
   12    11    13    1
   13    11    14    1
   14    14    15    1
   15    14    16    1
   16    14    17    1
   17    17    18    1
   18    17    19    1
   19    17    20    1
   20    20    21    1
   21    20    22    1
   22    22    23    1
   23    22    24    1
   24    22    25    1
   25    20    26    1
   26    26    27    1
   27    26    28    1
   28    26    29    1
@<TRIPOS>SUBSTRUCTURE
       1 MOL1            1 RESIDUE      1      MOL     
@<SCITEGIC>MOL_PROPERTY
VM2 Rank
SciTegic.value.IntegerValue
76

@<SCITEGIC>MOL_PROPERTY
Conf_Id
SciTegic.value.IntegerValue
347

@<SCITEGIC>MOL_PROPERTY
Probability
SciTegic.value.DoubleValue
0.06

@<SCITEGIC>MOL_PROPERTY
Sum Probability
SciTegic.value.DoubleValue
98.55

@<SCITEGIC>MOL_PROPERTY
Delta G
SciTegic.value.DoubleValue
3.025

@<SCITEGIC>MOL_PROPERTY
G
SciTegic.value.DoubleValue
36.727

@<SCITEGIC>MOL_PROPERTY
E
SciTegic.value.DoubleValue
-0.999

@<SCITEGIC>MOL_PROPERTY
-TS
SciTegic.value.DoubleValue
37.726

@<SCITEGIC>MOL_PROPERTY
U+W
SciTegic.value.DoubleValue
-25.143

@<SCITEGIC>MOL_PROPERTY
U
SciTegic.value.DoubleValue
27.273

@<SCITEGIC>MOL_PROPERTY
W
SciTegic.value.DoubleValue
-52.416

@<SCITEGIC>MOL_PROPERTY
W(PB)
SciTegic.value.DoubleValue
-54.885

@<SCITEGIC>MOL_PROPERTY
W(SA)
SciTegic.value.DoubleValue
2.468

@<SCITEGIC>MOL_PROPERTY
Valence
SciTegic.value.DoubleValue
5.666

@<SCITEGIC>MOL_PROPERTY
Coulomb
SciTegic.value.DoubleValue
20.783

@<SCITEGIC>MOL_PROPERTY
VdW
SciTegic.value.DoubleValue
0.825

@<SCITEGIC>MOL_PROPERTY
VdW6
SciTegic.value.DoubleValue
-9.945

@<SCITEGIC>MOL_PROPERTY
VdW12
SciTegic.value.DoubleValue
10.770

@<SCITEGIC>MOL_PROPERTY
Bond
SciTegic.value.DoubleValue
0.273

@<SCITEGIC>MOL_PROPERTY
Angle
SciTegic.value.DoubleValue
1.789

@<SCITEGIC>MOL_PROPERTY
Pdih
SciTegic.value.DoubleValue
3.603

@<SCITEGIC>MOL_PROPERTY
Idih
SciTegic.value.DoubleValue
0.000

@<SCITEGIC>MOL_PROPERTY
Tether
SciTegic.value.DoubleValue
0.000

@<TRIPOS>MOLECULE
guest-s15_vm2.mol2 : vm2 ligand conformer 77
          29          28           1
SMALL
USER_CHARGES
 
@<TRIPOS>ATOM
       1    C1      20.175932   19.582644   18.958202 C.3        1 MOL1        -0.2426
       2    H1      19.269672   19.091959   18.579820 H          1 MOL1         0.0959
       3    H2      20.011083   20.667847   18.937990 H          1 MOL1         0.0959
       4    H3      20.997089   19.353477   18.266661 H          1 MOL1         0.0959
       5    C2      20.513793   19.099523   20.384467 C.3        1 MOL1        -0.1410
       6    H4      21.442081   19.581343   20.722133 H          1 MOL1         0.0948
       7    H5      20.706204   18.017597   20.366875 H          1 MOL1         0.0948
       8    C3      19.373138   19.410246   21.378630 C.3        1 MOL1        -0.1435
       9    H6      19.183053   20.492439   21.391572 H          1 MOL1         0.0948
      10    H7      18.447113   18.928853   21.034910 H          1 MOL1         0.0948
      11    C4      19.708024   18.927339   22.807767 C.3        1 MOL1        -0.1435
      12    H8      20.636798   19.410378   23.138704 H          1 MOL1         0.0948
      13    H9      19.892123   17.844209   22.794086 H          1 MOL1         0.0948
      14    C5      18.568202   19.246597   23.803066 C.3        1 MOL1        -0.1435
      15    H10     18.432833   20.335231   23.866969 H          1 MOL1         0.0948
      16    H11     17.625224   18.842539   23.409477 H          1 MOL1         0.0948
      17    C6      18.789295   18.673100   25.225877 C.3        1 MOL1        -0.1500
      18    H12     18.838411   17.576637   25.187384 H          1 MOL1         0.0948
      19    H13     17.893508   18.907922   25.815943 H          1 MOL1         0.0948
      20    C7      20.034983   19.245624   25.944928 C.3        1 MOL1         0.1162
      21    H14     20.312302   20.183325   25.453641 H          1 MOL1         0.0910
      22    C8      21.229220   18.276554   25.872369 C.3        1 MOL1        -0.2491
      23    H15     21.009472   17.339329   26.398851 H          1 MOL1         0.0959
      24    H16     21.484715   18.028303   24.836445 H          1 MOL1         0.0959
      25    H17     22.117953   18.724005   26.334146 H          1 MOL1         0.0959
      26    N1      19.743412   19.594372   27.378694 N.4        1 MOL1        -0.5987
      27    H18     20.562862   20.001647   27.838498 H          1 MOL1         0.3605
      28    H19     19.470689   18.767324   27.916783 H          1 MOL1         0.3605
      29    H20     18.982344   20.275770   27.453137 H          1 MOL1         0.3605
@<TRIPOS>BOND
    1     1     2    1
    2     1     3    1
    3     1     4    1
    4     1     5    1
    5     5     6    1
    6     5     7    1
    7     5     8    1
    8     8     9    1
    9     8    10    1
   10     8    11    1
   11    11    12    1
   12    11    13    1
   13    11    14    1
   14    14    15    1
   15    14    16    1
   16    14    17    1
   17    17    18    1
   18    17    19    1
   19    17    20    1
   20    20    21    1
   21    20    22    1
   22    22    23    1
   23    22    24    1
   24    22    25    1
   25    20    26    1
   26    26    27    1
   27    26    28    1
   28    26    29    1
@<TRIPOS>SUBSTRUCTURE
       1 MOL1            1 RESIDUE      1      MOL     
@<SCITEGIC>MOL_PROPERTY
VM2 Rank
SciTegic.value.IntegerValue
77

@<SCITEGIC>MOL_PROPERTY
Conf_Id
SciTegic.value.IntegerValue
575

@<SCITEGIC>MOL_PROPERTY
Probability
SciTegic.value.DoubleValue
0.05

@<SCITEGIC>MOL_PROPERTY
Sum Probability
SciTegic.value.DoubleValue
98.60

@<SCITEGIC>MOL_PROPERTY
Delta G
SciTegic.value.DoubleValue
3.184

@<SCITEGIC>MOL_PROPERTY
G
SciTegic.value.DoubleValue
36.886

@<SCITEGIC>MOL_PROPERTY
E
SciTegic.value.DoubleValue
-0.652

@<SCITEGIC>MOL_PROPERTY
-TS
SciTegic.value.DoubleValue
37.538

@<SCITEGIC>MOL_PROPERTY
U+W
SciTegic.value.DoubleValue
-24.796

@<SCITEGIC>MOL_PROPERTY
U
SciTegic.value.DoubleValue
27.226

@<SCITEGIC>MOL_PROPERTY
W
SciTegic.value.DoubleValue
-52.022

@<SCITEGIC>MOL_PROPERTY
W(PB)
SciTegic.value.DoubleValue
-54.532

@<SCITEGIC>MOL_PROPERTY
W(SA)
SciTegic.value.DoubleValue
2.510

@<SCITEGIC>MOL_PROPERTY
Valence
SciTegic.value.DoubleValue
6.290

@<SCITEGIC>MOL_PROPERTY
Coulomb
SciTegic.value.DoubleValue
19.805

@<SCITEGIC>MOL_PROPERTY
VdW
SciTegic.value.DoubleValue
1.131

@<SCITEGIC>MOL_PROPERTY
VdW6
SciTegic.value.DoubleValue
-9.035

@<SCITEGIC>MOL_PROPERTY
VdW12
SciTegic.value.DoubleValue
10.166

@<SCITEGIC>MOL_PROPERTY
Bond
SciTegic.value.DoubleValue
0.225

@<SCITEGIC>MOL_PROPERTY
Angle
SciTegic.value.DoubleValue
1.383

@<SCITEGIC>MOL_PROPERTY
Pdih
SciTegic.value.DoubleValue
4.683

@<SCITEGIC>MOL_PROPERTY
Idih
SciTegic.value.DoubleValue
0.000

@<SCITEGIC>MOL_PROPERTY
Tether
SciTegic.value.DoubleValue
0.000

@<TRIPOS>MOLECULE
guest-s15_vm2.mol2 : vm2 ligand conformer 78
          29          28           1
SMALL
USER_CHARGES
 
@<TRIPOS>ATOM
       1    C1      20.303052   19.187814   18.915811 C.3        1 MOL1        -0.2426
       2    H1      19.685633   20.040178   18.603526 H          1 MOL1         0.0959
       3    H2      21.342655   19.530743   18.998712 H          1 MOL1         0.0959
       4    H3      20.259930   18.431379   18.121462 H          1 MOL1         0.0959
       5    C2      19.803926   18.602177   20.253606 C.3        1 MOL1        -0.1410
       6    H4      20.418877   17.731887   20.522524 H          1 MOL1         0.0948
       7    H5      18.774552   18.237340   20.130420 H          1 MOL1         0.0948
       8    C3      19.854263   19.647588   21.389632 C.3        1 MOL1        -0.1435
       9    H6      20.884598   20.010841   21.507262 H          1 MOL1         0.0948
      10    H7      19.240189   20.516510   21.115236 H          1 MOL1         0.0948
      11    C4      19.355897   19.064793   22.731162 C.3        1 MOL1        -0.1435
      12    H8      19.963978   18.190886   22.993893 H          1 MOL1         0.0948
      13    H9      18.325228   18.703533   22.610480 H          1 MOL1         0.0948
      14    C5      19.400199   20.117619   23.865779 C.3        1 MOL1        -0.1435
      15    H10     20.409662   20.541751   23.958275 H          1 MOL1         0.0948
      16    H11     18.745949   20.953487   23.581448 H          1 MOL1         0.0948
      17    C6      18.926089   19.566895   25.236899 C.3        1 MOL1        -0.1500
      18    H12     18.215747   18.742209   25.091604 H          1 MOL1         0.0948
      19    H13     18.360735   20.362730   25.739652 H          1 MOL1         0.0948
      20    C7      20.063572   19.130875   26.191646 C.3        1 MOL1         0.1162
      21    H14     20.721712   19.990455   26.351497 H          1 MOL1         0.0910
      22    C8      20.910019   17.978024   25.626320 C.3        1 MOL1        -0.2491
      23    H15     20.283172   17.118545   25.358108 H          1 MOL1         0.0959
      24    H16     21.464802   18.297415   24.736580 H          1 MOL1         0.0959
      25    H17     21.649758   17.643266   26.363897 H          1 MOL1         0.0959
      26    N1      19.518984   18.760216   27.543144 N.4        1 MOL1        -0.5987
      27    H18     20.270242   18.516442   28.194955 H          1 MOL1         0.3605
      28    H19     18.891480   17.953638   27.484861 H          1 MOL1         0.3605
      29    H20     18.991025   19.531557   27.961680 H          1 MOL1         0.3605
@<TRIPOS>BOND
    1     1     2    1
    2     1     3    1
    3     1     4    1
    4     1     5    1
    5     5     6    1
    6     5     7    1
    7     5     8    1
    8     8     9    1
    9     8    10    1
   10     8    11    1
   11    11    12    1
   12    11    13    1
   13    11    14    1
   14    14    15    1
   15    14    16    1
   16    14    17    1
   17    17    18    1
   18    17    19    1
   19    17    20    1
   20    20    21    1
   21    20    22    1
   22    22    23    1
   23    22    24    1
   24    22    25    1
   25    20    26    1
   26    26    27    1
   27    26    28    1
   28    26    29    1
@<TRIPOS>SUBSTRUCTURE
       1 MOL1            1 RESIDUE      1      MOL     
@<SCITEGIC>MOL_PROPERTY
VM2 Rank
SciTegic.value.IntegerValue
78

@<SCITEGIC>MOL_PROPERTY
Conf_Id
SciTegic.value.IntegerValue
276

@<SCITEGIC>MOL_PROPERTY
Probability
SciTegic.value.DoubleValue
0.05

@<SCITEGIC>MOL_PROPERTY
Sum Probability
SciTegic.value.DoubleValue
98.65

@<SCITEGIC>MOL_PROPERTY
Delta G
SciTegic.value.DoubleValue
3.193

@<SCITEGIC>MOL_PROPERTY
G
SciTegic.value.DoubleValue
36.895

@<SCITEGIC>MOL_PROPERTY
E
SciTegic.value.DoubleValue
-0.781

@<SCITEGIC>MOL_PROPERTY
-TS
SciTegic.value.DoubleValue
37.676

@<SCITEGIC>MOL_PROPERTY
U+W
SciTegic.value.DoubleValue
-24.925

@<SCITEGIC>MOL_PROPERTY
U
SciTegic.value.DoubleValue
27.070

@<SCITEGIC>MOL_PROPERTY
W
SciTegic.value.DoubleValue
-51.996

@<SCITEGIC>MOL_PROPERTY
W(PB)
SciTegic.value.DoubleValue
-54.495

@<SCITEGIC>MOL_PROPERTY
W(SA)
SciTegic.value.DoubleValue
2.499

@<SCITEGIC>MOL_PROPERTY
Valence
SciTegic.value.DoubleValue
6.259

@<SCITEGIC>MOL_PROPERTY
Coulomb
SciTegic.value.DoubleValue
19.668

@<SCITEGIC>MOL_PROPERTY
VdW
SciTegic.value.DoubleValue
1.143

@<SCITEGIC>MOL_PROPERTY
VdW6
SciTegic.value.DoubleValue
-9.081

@<SCITEGIC>MOL_PROPERTY
VdW12
SciTegic.value.DoubleValue
10.224

@<SCITEGIC>MOL_PROPERTY
Bond
SciTegic.value.DoubleValue
0.251

@<SCITEGIC>MOL_PROPERTY
Angle
SciTegic.value.DoubleValue
1.658

@<SCITEGIC>MOL_PROPERTY
Pdih
SciTegic.value.DoubleValue
4.351

@<SCITEGIC>MOL_PROPERTY
Idih
SciTegic.value.DoubleValue
0.000

@<SCITEGIC>MOL_PROPERTY
Tether
SciTegic.value.DoubleValue
0.000

@<TRIPOS>MOLECULE
guest-s15_vm2.mol2 : vm2 ligand conformer 79
          29          28           1
SMALL
USER_CHARGES
 
@<TRIPOS>ATOM
       1    C1      19.196170   19.162767   19.130529 C.3        1 MOL1        -0.2426
       2    H1      20.075801   19.699344   18.751603 H          1 MOL1         0.0959
       3    H2      19.367886   18.086782   18.996309 H          1 MOL1         0.0959
       4    H3      18.335477   19.446639   18.511125 H          1 MOL1         0.0959
       5    C2      18.935906   19.502054   20.613403 C.3        1 MOL1        -0.1410
       6    H4      18.031872   18.977884   20.953700 H          1 MOL1         0.0948
       7    H5      18.734652   20.578081   20.711204 H          1 MOL1         0.0948
       8    C3      20.133478   19.112082   21.507718 C.3        1 MOL1        -0.1435
       9    H6      20.331916   18.036125   21.405686 H          1 MOL1         0.0948
      10    H7      21.034762   19.635931   21.160329 H          1 MOL1         0.0948
      11    C4      19.877241   19.451568   22.993259 C.3        1 MOL1        -0.1435
      12    H8      18.971814   18.926755   23.320798 H          1 MOL1         0.0948
      13    H9      19.688834   20.529361   23.094134 H          1 MOL1         0.0948
      14    C5      21.073050   19.046128   23.887324 C.3        1 MOL1        -0.1435
      15    H10     21.199494   17.955474   23.863360 H          1 MOL1         0.0948
      16    H11     21.992686   19.460546   23.451683 H          1 MOL1         0.0948
      17    C6      20.982199   19.540550   25.358631 C.3        1 MOL1        -0.1500
      18    H12     20.982040   20.638316   25.372732 H          1 MOL1         0.0948
      19    H13     21.908643   19.243649   25.867631 H          1 MOL1         0.0948
      20    C7      19.795368   19.026761   26.213121 C.3        1 MOL1         0.1162
      21    H14     20.016736   19.291542   27.251672 H          1 MOL1         0.0910
      22    C8      19.645414   17.496745   26.152397 C.3        1 MOL1        -0.2491
      23    H15     18.894828   17.155374   26.875715 H          1 MOL1         0.0959
      24    H16     19.330239   17.159794   25.157630 H          1 MOL1         0.0959
      25    H17     20.593850   17.003441   26.398705 H          1 MOL1         0.0959
      26    N1      18.497174   19.717345   25.897616 N.4        1 MOL1        -0.5987
      27    H18     18.204246   19.535775   24.935475 H          1 MOL1         0.3605
      28    H19     18.576289   20.732116   26.010373 H          1 MOL1         0.3605
      29    H20     17.745271   19.398980   26.515739 H          1 MOL1         0.3605
@<TRIPOS>BOND
    1     1     2    1
    2     1     3    1
    3     1     4    1
    4     1     5    1
    5     5     6    1
    6     5     7    1
    7     5     8    1
    8     8     9    1
    9     8    10    1
   10     8    11    1
   11    11    12    1
   12    11    13    1
   13    11    14    1
   14    14    15    1
   15    14    16    1
   16    14    17    1
   17    17    18    1
   18    17    19    1
   19    17    20    1
   20    20    21    1
   21    20    22    1
   22    22    23    1
   23    22    24    1
   24    22    25    1
   25    20    26    1
   26    26    27    1
   27    26    28    1
   28    26    29    1
@<TRIPOS>SUBSTRUCTURE
       1 MOL1            1 RESIDUE      1      MOL     
@<SCITEGIC>MOL_PROPERTY
VM2 Rank
SciTegic.value.IntegerValue
79

@<SCITEGIC>MOL_PROPERTY
Conf_Id
SciTegic.value.IntegerValue
638

@<SCITEGIC>MOL_PROPERTY
Probability
SciTegic.value.DoubleValue
0.05

@<SCITEGIC>MOL_PROPERTY
Sum Probability
SciTegic.value.DoubleValue
98.70

@<SCITEGIC>MOL_PROPERTY
Delta G
SciTegic.value.DoubleValue
3.230

@<SCITEGIC>MOL_PROPERTY
G
SciTegic.value.DoubleValue
36.932

@<SCITEGIC>MOL_PROPERTY
E
SciTegic.value.DoubleValue
-1.035

@<SCITEGIC>MOL_PROPERTY
-TS
SciTegic.value.DoubleValue
37.968

@<SCITEGIC>MOL_PROPERTY
U+W
SciTegic.value.DoubleValue
-25.180

@<SCITEGIC>MOL_PROPERTY
U
SciTegic.value.DoubleValue
27.314

@<SCITEGIC>MOL_PROPERTY
W
SciTegic.value.DoubleValue
-52.494

@<SCITEGIC>MOL_PROPERTY
W(PB)
SciTegic.value.DoubleValue
-54.962

@<SCITEGIC>MOL_PROPERTY
W(SA)
SciTegic.value.DoubleValue
2.468

@<SCITEGIC>MOL_PROPERTY
Valence
SciTegic.value.DoubleValue
5.057

@<SCITEGIC>MOL_PROPERTY
Coulomb
SciTegic.value.DoubleValue
21.357

@<SCITEGIC>MOL_PROPERTY
VdW
SciTegic.value.DoubleValue
0.900

@<SCITEGIC>MOL_PROPERTY
VdW6
SciTegic.value.DoubleValue
-10.071

@<SCITEGIC>MOL_PROPERTY
VdW12
SciTegic.value.DoubleValue
10.971

@<SCITEGIC>MOL_PROPERTY
Bond
SciTegic.value.DoubleValue
0.294

@<SCITEGIC>MOL_PROPERTY
Angle
SciTegic.value.DoubleValue
2.163

@<SCITEGIC>MOL_PROPERTY
Pdih
SciTegic.value.DoubleValue
2.599

@<SCITEGIC>MOL_PROPERTY
Idih
SciTegic.value.DoubleValue
0.000

@<SCITEGIC>MOL_PROPERTY
Tether
SciTegic.value.DoubleValue
0.000

@<TRIPOS>MOLECULE
guest-s15_vm2.mol2 : vm2 ligand conformer 80
          29          28           1
SMALL
USER_CHARGES
 
@<TRIPOS>ATOM
       1    C1      20.763202   20.364893   20.580262 C.3        1 MOL1        -0.2426
       2    H1      20.228189   21.225623   21.001872 H          1 MOL1         0.0959
       3    H2      21.411117   19.940143   21.356817 H          1 MOL1         0.0959
       4    H3      21.413793   20.734090   19.776966 H          1 MOL1         0.0959
       5    C2      19.777685   19.309227   20.033743 C.3        1 MOL1        -0.1410
       6    H4      20.340482   18.433689   19.681060 H          1 MOL1         0.0948
       7    H5      19.273331   19.723005   19.149360 H          1 MOL1         0.0948
       8    C3      18.696996   18.857645   21.049011 C.3        1 MOL1        -0.1435
       9    H6      18.062171   19.709619   21.328595 H          1 MOL1         0.0948
      10    H7      18.033019   18.151325   20.531705 H          1 MOL1         0.0948
      11    C4      19.250588   18.158383   22.317889 C.3        1 MOL1        -0.1435
      12    H8      20.196026   17.649736   22.084368 H          1 MOL1         0.0948
      13    H9      18.546198   17.368909   22.614502 H          1 MOL1         0.0948
      14    C5      19.433399   19.117170   23.519823 C.3        1 MOL1        -0.1435
      15    H10     20.108384   19.939211   23.253609 H          1 MOL1         0.0948
      16    H11     18.464179   19.572104   23.763167 H          1 MOL1         0.0948
      17    C6      19.994330   18.378647   24.759206 C.3        1 MOL1        -0.1500
      18    H12     20.934999   17.884601   24.481467 H          1 MOL1         0.0948
      19    H13     19.300699   17.583741   25.064105 H          1 MOL1         0.0948
      20    C7      20.261249   19.321326   25.952503 C.3        1 MOL1         0.1162
      21    H14     20.933853   20.116919   25.617417 H          1 MOL1         0.0910
      22    C8      20.949436   18.556451   27.094259 C.3        1 MOL1        -0.2491
      23    H15     21.174947   19.228616   27.931363 H          1 MOL1         0.0959
      24    H16     20.312695   17.745229   27.468995 H          1 MOL1         0.0959
      25    H17     21.896442   18.118522   26.754914 H          1 MOL1         0.0959
      26    N1      19.009114   19.992259   26.447304 N.4        1 MOL1        -0.5987
      27    H18     19.207709   20.628013   27.225139 H          1 MOL1         0.3605
      28    H19     18.324882   19.306842   26.778322 H          1 MOL1         0.3605
      29    H20     18.562809   20.542107   25.708299 H          1 MOL1         0.3605
@<TRIPOS>BOND
    1     1     2    1
    2     1     3    1
    3     1     4    1
    4     1     5    1
    5     5     6    1
    6     5     7    1
    7     5     8    1
    8     8     9    1
    9     8    10    1
   10     8    11    1
   11    11    12    1
   12    11    13    1
   13    11    14    1
   14    14    15    1
   15    14    16    1
   16    14    17    1
   17    17    18    1
   18    17    19    1
   19    17    20    1
   20    20    21    1
   21    20    22    1
   22    22    23    1
   23    22    24    1
   24    22    25    1
   25    20    26    1
   26    26    27    1
   27    26    28    1
   28    26    29    1
@<TRIPOS>SUBSTRUCTURE
       1 MOL1            1 RESIDUE      1      MOL     
@<SCITEGIC>MOL_PROPERTY
VM2 Rank
SciTegic.value.IntegerValue
80

@<SCITEGIC>MOL_PROPERTY
Conf_Id
SciTegic.value.IntegerValue
840

@<SCITEGIC>MOL_PROPERTY
Probability
SciTegic.value.DoubleValue
0.04

@<SCITEGIC>MOL_PROPERTY
Sum Probability
SciTegic.value.DoubleValue
98.74

@<SCITEGIC>MOL_PROPERTY
Delta G
SciTegic.value.DoubleValue
3.252

@<SCITEGIC>MOL_PROPERTY
G
SciTegic.value.DoubleValue
36.954

@<SCITEGIC>MOL_PROPERTY
E
SciTegic.value.DoubleValue
-0.781

@<SCITEGIC>MOL_PROPERTY
-TS
SciTegic.value.DoubleValue
37.736

@<SCITEGIC>MOL_PROPERTY
U+W
SciTegic.value.DoubleValue
-24.926

@<SCITEGIC>MOL_PROPERTY
U
SciTegic.value.DoubleValue
27.363

@<SCITEGIC>MOL_PROPERTY
W
SciTegic.value.DoubleValue
-52.289

@<SCITEGIC>MOL_PROPERTY
W(PB)
SciTegic.value.DoubleValue
-54.777

@<SCITEGIC>MOL_PROPERTY
W(SA)
SciTegic.value.DoubleValue
2.488

@<SCITEGIC>MOL_PROPERTY
Valence
SciTegic.value.DoubleValue
6.134

@<SCITEGIC>MOL_PROPERTY
Coulomb
SciTegic.value.DoubleValue
20.079

@<SCITEGIC>MOL_PROPERTY
VdW
SciTegic.value.DoubleValue
1.150

@<SCITEGIC>MOL_PROPERTY
VdW6
SciTegic.value.DoubleValue
-9.534

@<SCITEGIC>MOL_PROPERTY
VdW12
SciTegic.value.DoubleValue
10.684

@<SCITEGIC>MOL_PROPERTY
Bond
SciTegic.value.DoubleValue
0.272

@<SCITEGIC>MOL_PROPERTY
Angle
SciTegic.value.DoubleValue
1.638

@<SCITEGIC>MOL_PROPERTY
Pdih
SciTegic.value.DoubleValue
4.224

@<SCITEGIC>MOL_PROPERTY
Idih
SciTegic.value.DoubleValue
0.000

@<SCITEGIC>MOL_PROPERTY
Tether
SciTegic.value.DoubleValue
0.000

@<TRIPOS>MOLECULE
guest-s15_vm2.mol2 : vm2 ligand conformer 81
          29          28           1
SMALL
USER_CHARGES
 
@<TRIPOS>ATOM
       1    C1      18.684252   18.836624   19.716836 C.3        1 MOL1        -0.2426
       2    H1      19.441908   18.162602   19.296500 H          1 MOL1         0.0959
       3    H2      18.116906   18.285592   20.477068 H          1 MOL1         0.0959
       4    H3      17.986385   19.101056   18.911863 H          1 MOL1         0.0959
       5    C2      19.336862   20.107699   20.305843 C.3        1 MOL1        -0.1410
       6    H4      18.562114   20.750351   20.746797 H          1 MOL1         0.0948
       7    H5      19.786848   20.686447   19.487110 H          1 MOL1         0.0948
       8    C3      20.429773   19.806289   21.359557 C.3        1 MOL1        -0.1435
       9    H6      21.214250   19.184839   20.906064 H          1 MOL1         0.0948
      10    H7      20.910642   20.752638   21.643295 H          1 MOL1         0.0948
      11    C4      19.885459   19.114384   22.632171 C.3        1 MOL1        -0.1435
      12    H8      19.472644   18.131243   22.370629 H          1 MOL1         0.0948
      13    H9      19.057750   19.709303   23.032743 H          1 MOL1         0.0948
      14    C5      20.994422   18.928519   23.697266 C.3        1 MOL1        -0.1435
      15    H10     21.812489   18.355948   23.238430 H          1 MOL1         0.0948
      16    H11     21.424650   19.900258   23.976742 H          1 MOL1         0.0948
      17    C6      20.530239   18.170064   24.968840 C.3        1 MOL1        -0.1500
      18    H12     21.408980   17.666669   25.393712 H          1 MOL1         0.0948
      19    H13     19.826451   17.370798   24.701300 H          1 MOL1         0.0948
      20    C7      19.927753   19.072119   26.071497 C.3        1 MOL1         0.1162
      21    H14     20.653135   19.858363   26.302135 H          1 MOL1         0.0910
      22    C8      19.684315   18.254900   27.350575 C.3        1 MOL1        -0.2491
      23    H15     19.294953   18.894604   28.152206 H          1 MOL1         0.0959
      24    H16     18.961006   17.448768   27.174682 H          1 MOL1         0.0959
      25    H17     20.617826   17.803998   27.709727 H          1 MOL1         0.0959
      26    N1      18.662925   19.765401   25.651416 N.4        1 MOL1        -0.5987
      27    H18     18.295125   20.358367   26.400939 H          1 MOL1         0.3605
      28    H19     17.933221   19.091463   25.404980 H          1 MOL1         0.3605
      29    H20     18.824129   20.363579   24.836993 H          1 MOL1         0.3605
@<TRIPOS>BOND
    1     1     2    1
    2     1     3    1
    3     1     4    1
    4     1     5    1
    5     5     6    1
    6     5     7    1
    7     5     8    1
    8     8     9    1
    9     8    10    1
   10     8    11    1
   11    11    12    1
   12    11    13    1
   13    11    14    1
   14    14    15    1
   15    14    16    1
   16    14    17    1
   17    17    18    1
   18    17    19    1
   19    17    20    1
   20    20    21    1
   21    20    22    1
   22    22    23    1
   23    22    24    1
   24    22    25    1
   25    20    26    1
   26    26    27    1
   27    26    28    1
   28    26    29    1
@<TRIPOS>SUBSTRUCTURE
       1 MOL1            1 RESIDUE      1      MOL     
@<SCITEGIC>MOL_PROPERTY
VM2 Rank
SciTegic.value.IntegerValue
81

@<SCITEGIC>MOL_PROPERTY
Conf_Id
SciTegic.value.IntegerValue
1547

@<SCITEGIC>MOL_PROPERTY
Probability
SciTegic.value.DoubleValue
0.04

@<SCITEGIC>MOL_PROPERTY
Sum Probability
SciTegic.value.DoubleValue
98.79

@<SCITEGIC>MOL_PROPERTY
Delta G
SciTegic.value.DoubleValue
3.278

@<SCITEGIC>MOL_PROPERTY
G
SciTegic.value.DoubleValue
36.980

@<SCITEGIC>MOL_PROPERTY
E
SciTegic.value.DoubleValue
-0.297

@<SCITEGIC>MOL_PROPERTY
-TS
SciTegic.value.DoubleValue
37.278

@<SCITEGIC>MOL_PROPERTY
U+W
SciTegic.value.DoubleValue
-24.442

@<SCITEGIC>MOL_PROPERTY
U
SciTegic.value.DoubleValue
27.677

@<SCITEGIC>MOL_PROPERTY
W
SciTegic.value.DoubleValue
-52.118

@<SCITEGIC>MOL_PROPERTY
W(PB)
SciTegic.value.DoubleValue
-54.604

@<SCITEGIC>MOL_PROPERTY
W(SA)
SciTegic.value.DoubleValue
2.485

@<SCITEGIC>MOL_PROPERTY
Valence
SciTegic.value.DoubleValue
5.651

@<SCITEGIC>MOL_PROPERTY
Coulomb
SciTegic.value.DoubleValue
20.826

@<SCITEGIC>MOL_PROPERTY
VdW
SciTegic.value.DoubleValue
1.200

@<SCITEGIC>MOL_PROPERTY
VdW6
SciTegic.value.DoubleValue
-9.461

@<SCITEGIC>MOL_PROPERTY
VdW12
SciTegic.value.DoubleValue
10.661

@<SCITEGIC>MOL_PROPERTY
Bond
SciTegic.value.DoubleValue
0.293

@<SCITEGIC>MOL_PROPERTY
Angle
SciTegic.value.DoubleValue
1.684

@<SCITEGIC>MOL_PROPERTY
Pdih
SciTegic.value.DoubleValue
3.674

@<SCITEGIC>MOL_PROPERTY
Idih
SciTegic.value.DoubleValue
0.000

@<SCITEGIC>MOL_PROPERTY
Tether
SciTegic.value.DoubleValue
0.000

@<TRIPOS>MOLECULE
guest-s15_vm2.mol2 : vm2 ligand conformer 82
          29          28           1
SMALL
USER_CHARGES
 
@<TRIPOS>ATOM
       1    C1      18.496003   18.479810   19.964875 C.3        1 MOL1        -0.2426
       2    H1      17.563470   18.800995   20.446985 H          1 MOL1         0.0959
       3    H2      18.659647   19.111265   19.081858 H          1 MOL1         0.0959
       4    H3      18.358623   17.446857   19.619680 H          1 MOL1         0.0959
       5    C2      19.686179   18.573875   20.942740 C.3        1 MOL1        -0.1410
       6    H4      20.595531   18.214076   20.441418 H          1 MOL1         0.0948
       7    H5      19.509218   17.899083   21.788641 H          1 MOL1         0.0948
       8    C3      19.905918   20.024816   21.434768 C.3        1 MOL1        -0.1435
       9    H6      20.107111   20.654999   20.557387 H          1 MOL1         0.0948
      10    H7      18.985715   20.420037   21.886519 H          1 MOL1         0.0948
      11    C4      21.091384   20.170302   22.424314 C.3        1 MOL1        -0.1435
      12    H8      21.579425   21.135969   22.232657 H          1 MOL1         0.0948
      13    H9      21.855425   19.407778   22.219485 H          1 MOL1         0.0948
      14    C5      20.693051   20.139370   23.922428 C.3        1 MOL1        -0.1435
      15    H10     21.595044   20.324620   24.522166 H          1 MOL1         0.0948
      16    H11     20.009833   20.974317   24.127703 H          1 MOL1         0.0948
      17    C6      20.049202   18.807977   24.381874 C.3        1 MOL1        -0.1500
      18    H12     20.680055   17.973279   24.048664 H          1 MOL1         0.0948
      19    H13     19.069841   18.682153   23.903347 H          1 MOL1         0.0948
      20    C7      19.878454   18.722449   25.913708 C.3        1 MOL1         0.1162
      21    H14     20.859344   18.867355   26.376834 H          1 MOL1         0.0910
      22    C8      19.354597   17.334755   26.316259 C.3        1 MOL1        -0.2491
      23    H15     20.039530   16.546724   25.979176 H          1 MOL1         0.0959
      24    H16     19.266074   17.254492   27.406726 H          1 MOL1         0.0959
      25    H17     18.367742   17.140286   25.877804 H          1 MOL1         0.0959
      26    N1      18.981212   19.802646   26.453034 N.4        1 MOL1        -0.5987
      27    H18     18.897251   19.745083   27.471992 H          1 MOL1         0.3605
      28    H19     18.037638   19.733071   26.062831 H          1 MOL1         0.3605
      29    H20     19.341120   20.733888   26.227202 H          1 MOL1         0.3605
@<TRIPOS>BOND
    1     1     2    1
    2     1     3    1
    3     1     4    1
    4     1     5    1
    5     5     6    1
    6     5     7    1
    7     5     8    1
    8     8     9    1
    9     8    10    1
   10     8    11    1
   11    11    12    1
   12    11    13    1
   13    11    14    1
   14    14    15    1
   15    14    16    1
   16    14    17    1
   17    17    18    1
   18    17    19    1
   19    17    20    1
   20    20    21    1
   21    20    22    1
   22    22    23    1
   23    22    24    1
   24    22    25    1
   25    20    26    1
   26    26    27    1
   27    26    28    1
   28    26    29    1
@<TRIPOS>SUBSTRUCTURE
       1 MOL1            1 RESIDUE      1      MOL     
@<SCITEGIC>MOL_PROPERTY
VM2 Rank
SciTegic.value.IntegerValue
82

@<SCITEGIC>MOL_PROPERTY
Conf_Id
SciTegic.value.IntegerValue
481

@<SCITEGIC>MOL_PROPERTY
Probability
SciTegic.value.DoubleValue
0.04

@<SCITEGIC>MOL_PROPERTY
Sum Probability
SciTegic.value.DoubleValue
98.83

@<SCITEGIC>MOL_PROPERTY
Delta G
SciTegic.value.DoubleValue
3.309

@<SCITEGIC>MOL_PROPERTY
G
SciTegic.value.DoubleValue
37.011

@<SCITEGIC>MOL_PROPERTY
E
SciTegic.value.DoubleValue
-0.767

@<SCITEGIC>MOL_PROPERTY
-TS
SciTegic.value.DoubleValue
37.778

@<SCITEGIC>MOL_PROPERTY
U+W
SciTegic.value.DoubleValue
-24.911

@<SCITEGIC>MOL_PROPERTY
U
SciTegic.value.DoubleValue
27.426

@<SCITEGIC>MOL_PROPERTY
W
SciTegic.value.DoubleValue
-52.337

@<SCITEGIC>MOL_PROPERTY
W(PB)
SciTegic.value.DoubleValue
-54.832

@<SCITEGIC>MOL_PROPERTY
W(SA)
SciTegic.value.DoubleValue
2.495

@<SCITEGIC>MOL_PROPERTY
Valence
SciTegic.value.DoubleValue
6.169

@<SCITEGIC>MOL_PROPERTY
Coulomb
SciTegic.value.DoubleValue
20.212

@<SCITEGIC>MOL_PROPERTY
VdW
SciTegic.value.DoubleValue
1.045

@<SCITEGIC>MOL_PROPERTY
VdW6
SciTegic.value.DoubleValue
-9.697

@<SCITEGIC>MOL_PROPERTY
VdW12
SciTegic.value.DoubleValue
10.742

@<SCITEGIC>MOL_PROPERTY
Bond
SciTegic.value.DoubleValue
0.273

@<SCITEGIC>MOL_PROPERTY
Angle
SciTegic.value.DoubleValue
1.616

@<SCITEGIC>MOL_PROPERTY
Pdih
SciTegic.value.DoubleValue
4.280

@<SCITEGIC>MOL_PROPERTY
Idih
SciTegic.value.DoubleValue
0.000

@<SCITEGIC>MOL_PROPERTY
Tether
SciTegic.value.DoubleValue
0.000

@<TRIPOS>MOLECULE
guest-s15_vm2.mol2 : vm2 ligand conformer 83
          29          28           1
SMALL
USER_CHARGES
 
@<TRIPOS>ATOM
       1    C1      19.034065   19.282921   19.064010 C.3        1 MOL1        -0.2426
       2    H1      19.563175   20.194471   18.756817 H          1 MOL1         0.0959
       3    H2      19.060526   18.578105   18.222834 H          1 MOL1         0.0959
       4    H3      17.984440   19.543765   19.252401 H          1 MOL1         0.0959
       5    C2      19.684276   18.660067   20.317437 C.3        1 MOL1        -0.1410
       6    H4      20.721782   18.378950   20.088433 H          1 MOL1         0.0948
       7    H5      19.155139   17.733316   20.580171 H          1 MOL1         0.0948
       8    C3      19.660218   19.632618   21.517253 C.3        1 MOL1        -0.1435
       9    H6      20.188116   20.558216   21.248949 H          1 MOL1         0.0948
      10    H7      18.621395   19.912398   21.740690 H          1 MOL1         0.0948
      11    C4      20.309895   19.012236   22.774609 C.3        1 MOL1        -0.1435
      12    H8      21.348580   18.734702   22.547920 H          1 MOL1         0.0948
      13    H9      19.786178   18.083361   23.029246 H          1 MOL1         0.0948
      14    C5      20.290113   19.992377   23.973165 C.3        1 MOL1        -0.1435
      15    H10     20.845496   20.894903   23.682598 H          1 MOL1         0.0948
      16    H11     19.263370   20.323541   24.175539 H          1 MOL1         0.0948
      17    C6      20.942660   19.412566   25.259251 C.3        1 MOL1        -0.1500
      18    H12     21.464061   20.227693   25.778132 H          1 MOL1         0.0948
      19    H13     21.727738   18.694177   24.988883 H          1 MOL1         0.0948
      20    C7      19.976229   18.758576   26.277851 C.3        1 MOL1         0.1162
      21    H14     20.585844   18.395525   27.111093 H          1 MOL1         0.0910
      22    C8      19.221566   17.551447   25.698220 C.3        1 MOL1        -0.2491
      23    H15     18.494787   17.859729   24.937329 H          1 MOL1         0.0959
      24    H16     19.918857   16.835216   25.246322 H          1 MOL1         0.0959
      25    H17     18.672962   17.026954   26.490091 H          1 MOL1         0.0959
      26    N1      19.016978   19.753192   26.872203 N.4        1 MOL1        -0.5987
      27    H18     18.395558   20.142619   26.159102 H          1 MOL1         0.3605
      28    H19     19.511177   20.535416   27.311056 H          1 MOL1         0.3605
      29    H20     18.428426   19.321561   27.590489 H          1 MOL1         0.3605
@<TRIPOS>BOND
    1     1     2    1
    2     1     3    1
    3     1     4    1
    4     1     5    1
    5     5     6    1
    6     5     7    1
    7     5     8    1
    8     8     9    1
    9     8    10    1
   10     8    11    1
   11    11    12    1
   12    11    13    1
   13    11    14    1
   14    14    15    1
   15    14    16    1
   16    14    17    1
   17    17    18    1
   18    17    19    1
   19    17    20    1
   20    20    21    1
   21    20    22    1
   22    22    23    1
   23    22    24    1
   24    22    25    1
   25    20    26    1
   26    26    27    1
   27    26    28    1
   28    26    29    1
@<TRIPOS>SUBSTRUCTURE
       1 MOL1            1 RESIDUE      1      MOL     
@<SCITEGIC>MOL_PROPERTY
VM2 Rank
SciTegic.value.IntegerValue
83

@<SCITEGIC>MOL_PROPERTY
Conf_Id
SciTegic.value.IntegerValue
994

@<SCITEGIC>MOL_PROPERTY
Probability
SciTegic.value.DoubleValue
0.04

@<SCITEGIC>MOL_PROPERTY
Sum Probability
SciTegic.value.DoubleValue
98.86

@<SCITEGIC>MOL_PROPERTY
Delta G
SciTegic.value.DoubleValue
3.338

@<SCITEGIC>MOL_PROPERTY
G
SciTegic.value.DoubleValue
37.041

@<SCITEGIC>MOL_PROPERTY
E
SciTegic.value.DoubleValue
-0.701

@<SCITEGIC>MOL_PROPERTY
-TS
SciTegic.value.DoubleValue
37.742

@<SCITEGIC>MOL_PROPERTY
U+W
SciTegic.value.DoubleValue
-24.846

@<SCITEGIC>MOL_PROPERTY
U
SciTegic.value.DoubleValue
27.319

@<SCITEGIC>MOL_PROPERTY
W
SciTegic.value.DoubleValue
-52.165

@<SCITEGIC>MOL_PROPERTY
W(PB)
SciTegic.value.DoubleValue
-54.657

@<SCITEGIC>MOL_PROPERTY
W(SA)
SciTegic.value.DoubleValue
2.492

@<SCITEGIC>MOL_PROPERTY
Valence
SciTegic.value.DoubleValue
6.250

@<SCITEGIC>MOL_PROPERTY
Coulomb
SciTegic.value.DoubleValue
19.964

@<SCITEGIC>MOL_PROPERTY
VdW
SciTegic.value.DoubleValue
1.105

@<SCITEGIC>MOL_PROPERTY
VdW6
SciTegic.value.DoubleValue
-9.527

@<SCITEGIC>MOL_PROPERTY
VdW12
SciTegic.value.DoubleValue
10.632

@<SCITEGIC>MOL_PROPERTY
Bond
SciTegic.value.DoubleValue
0.282

@<SCITEGIC>MOL_PROPERTY
Angle
SciTegic.value.DoubleValue
1.801

@<SCITEGIC>MOL_PROPERTY
Pdih
SciTegic.value.DoubleValue
4.167

@<SCITEGIC>MOL_PROPERTY
Idih
SciTegic.value.DoubleValue
0.000

@<SCITEGIC>MOL_PROPERTY
Tether
SciTegic.value.DoubleValue
0.000

@<TRIPOS>MOLECULE
guest-s15_vm2.mol2 : vm2 ligand conformer 84
          29          28           1
SMALL
USER_CHARGES
 
@<TRIPOS>ATOM
       1    C1      20.110173   20.797218   20.042994 C.3        1 MOL1        -0.2426
       2    H1      19.643690   21.071049   19.087771 H          1 MOL1         0.0959
       3    H2      20.014801   21.654175   20.722532 H          1 MOL1         0.0959
       4    H3      21.178491   20.623860   19.858923 H          1 MOL1         0.0959
       5    C2      19.438711   19.540816   20.636740 C.3        1 MOL1        -0.1410
       6    H4      19.519666   18.711436   19.920180 H          1 MOL1         0.0948
       7    H5      18.366092   19.733534   20.779029 H          1 MOL1         0.0948
       8    C3      20.077888   19.133142   21.982449 C.3        1 MOL1        -0.1435
       9    H6      21.148803   18.939439   21.831695 H          1 MOL1         0.0948
      10    H7      20.004625   19.975662   22.678561 H          1 MOL1         0.0948
      11    C4      19.404473   17.872357   22.577662 C.3        1 MOL1        -0.1435
      12    H8      19.472262   17.068031   21.831997 H          1 MOL1         0.0948
      13    H9      18.331562   18.050234   22.733717 H          1 MOL1         0.0948
      14    C5      20.056717   17.365996   23.890950 C.3        1 MOL1        -0.1435
      15    H10     19.906693   16.278598   23.940304 H          1 MOL1         0.0948
      16    H11     21.145309   17.504730   23.858427 H          1 MOL1         0.0948
      17    C6      19.457684   17.968403   25.191162 C.3        1 MOL1        -0.1500
      18    H12     19.905902   17.457754   26.053811 H          1 MOL1         0.0948
      19    H13     18.387356   17.725581   25.221994 H          1 MOL1         0.0948
      20    C7      19.624166   19.493801   25.373651 C.3        1 MOL1         0.1162
      21    H14     19.180385   19.995976   24.510315 H          1 MOL1         0.0910
      22    C8      21.103995   19.903279   25.483764 C.3        1 MOL1        -0.2491
      23    H15     21.592465   19.398386   26.326440 H          1 MOL1         0.0959
      24    H16     21.657535   19.655848   24.570933 H          1 MOL1         0.0959
      25    H17     21.194947   20.985651   25.636865 H          1 MOL1         0.0959
      26    N1      18.862193   19.980988   26.574629 N.4        1 MOL1        -0.5987
      27    H18     17.865558   19.755419   26.506083 H          1 MOL1         0.3605
      28    H19     18.938301   20.996832   26.679211 H          1 MOL1         0.3605
      29    H20     19.214619   19.558135   27.437601 H          1 MOL1         0.3605
@<TRIPOS>BOND
    1     1     2    1
    2     1     3    1
    3     1     4    1
    4     1     5    1
    5     5     6    1
    6     5     7    1
    7     5     8    1
    8     8     9    1
    9     8    10    1
   10     8    11    1
   11    11    12    1
   12    11    13    1
   13    11    14    1
   14    14    15    1
   15    14    16    1
   16    14    17    1
   17    17    18    1
   18    17    19    1
   19    17    20    1
   20    20    21    1
   21    20    22    1
   22    22    23    1
   23    22    24    1
   24    22    25    1
   25    20    26    1
   26    26    27    1
   27    26    28    1
   28    26    29    1
@<TRIPOS>SUBSTRUCTURE
       1 MOL1            1 RESIDUE      1      MOL     
@<SCITEGIC>MOL_PROPERTY
VM2 Rank
SciTegic.value.IntegerValue
84

@<SCITEGIC>MOL_PROPERTY
Conf_Id
SciTegic.value.IntegerValue
298

@<SCITEGIC>MOL_PROPERTY
Probability
SciTegic.value.DoubleValue
0.04

@<SCITEGIC>MOL_PROPERTY
Sum Probability
SciTegic.value.DoubleValue
98.90

@<SCITEGIC>MOL_PROPERTY
Delta G
SciTegic.value.DoubleValue
3.384

@<SCITEGIC>MOL_PROPERTY
G
SciTegic.value.DoubleValue
37.087

@<SCITEGIC>MOL_PROPERTY
E
SciTegic.value.DoubleValue
-0.946

@<SCITEGIC>MOL_PROPERTY
-TS
SciTegic.value.DoubleValue
38.033

@<SCITEGIC>MOL_PROPERTY
U+W
SciTegic.value.DoubleValue
-25.090

@<SCITEGIC>MOL_PROPERTY
U
SciTegic.value.DoubleValue
27.495

@<SCITEGIC>MOL_PROPERTY
W
SciTegic.value.DoubleValue
-52.586

@<SCITEGIC>MOL_PROPERTY
W(PB)
SciTegic.value.DoubleValue
-55.042

@<SCITEGIC>MOL_PROPERTY
W(SA)
SciTegic.value.DoubleValue
2.456

@<SCITEGIC>MOL_PROPERTY
Valence
SciTegic.value.DoubleValue
6.349

@<SCITEGIC>MOL_PROPERTY
Coulomb
SciTegic.value.DoubleValue
20.401

@<SCITEGIC>MOL_PROPERTY
VdW
SciTegic.value.DoubleValue
0.745

@<SCITEGIC>MOL_PROPERTY
VdW6
SciTegic.value.DoubleValue
-10.334

@<SCITEGIC>MOL_PROPERTY
VdW12
SciTegic.value.DoubleValue
11.079

@<SCITEGIC>MOL_PROPERTY
Bond
SciTegic.value.DoubleValue
0.286

@<SCITEGIC>MOL_PROPERTY
Angle
SciTegic.value.DoubleValue
2.247

@<SCITEGIC>MOL_PROPERTY
Pdih
SciTegic.value.DoubleValue
3.816

@<SCITEGIC>MOL_PROPERTY
Idih
SciTegic.value.DoubleValue
0.000

@<SCITEGIC>MOL_PROPERTY
Tether
SciTegic.value.DoubleValue
0.000

@<TRIPOS>MOLECULE
guest-s15_vm2.mol2 : vm2 ligand conformer 85
          29          28           1
SMALL
USER_CHARGES
 
@<TRIPOS>ATOM
       1    C1      21.071358   19.446119   19.778745 C.3        1 MOL1        -0.2426
       2    H1      22.129476   19.154669   19.757321 H          1 MOL1         0.0959
       3    H2      20.567560   18.946778   18.940848 H          1 MOL1         0.0959
       4    H3      21.016734   20.530117   19.613777 H          1 MOL1         0.0959
       5    C2      20.426379   19.057379   21.125873 C.3        1 MOL1        -0.1410
       6    H4      20.981152   19.546160   21.937602 H          1 MOL1         0.0948
       7    H5      20.519878   17.972697   21.274866 H          1 MOL1         0.0948
       8    C3      18.937208   19.467488   21.184196 C.3        1 MOL1        -0.1435
       9    H6      18.857216   20.561062   21.114055 H          1 MOL1         0.0948
      10    H7      18.422390   19.066694   20.300108 H          1 MOL1         0.0948
      11    C4      18.185405   18.976470   22.448366 C.3        1 MOL1        -0.1435
      12    H8      18.168021   17.878188   22.475169 H          1 MOL1         0.0948
      13    H9      17.135765   19.285988   22.348827 H          1 MOL1         0.0948
      14    C5      18.730641   19.540092   23.786421 C.3        1 MOL1        -0.1435
      15    H10     19.204777   20.516914   23.617727 H          1 MOL1         0.0948
      16    H11     17.876802   19.726106   24.451484 H          1 MOL1         0.0948
      17    C6      19.714507   18.577367   24.500896 C.3        1 MOL1        -0.1500
      18    H12     20.518533   18.291092   23.813643 H          1 MOL1         0.0948
      19    H13     19.192235   17.648611   24.766422 H          1 MOL1         0.0948
      20    C7      20.345186   19.195488   25.767327 C.3        1 MOL1         0.1162
      21    H14     20.837560   20.130684   25.483390 H          1 MOL1         0.0910
      22    C8      21.406349   18.249914   26.352243 C.3        1 MOL1        -0.2491
      23    H15     21.884042   18.698957   27.231775 H          1 MOL1         0.0959
      24    H16     20.962060   17.293524   26.655350 H          1 MOL1         0.0959
      25    H17     22.192962   18.043176   25.615855 H          1 MOL1         0.0959
      26    N1      19.318966   19.545682   26.809933 N.4        1 MOL1        -0.5987
      27    H18     18.629738   20.209915   26.447342 H          1 MOL1         0.3605
      28    H19     19.752786   19.972864   27.633308 H          1 MOL1         0.3605
      29    H20     18.810953   18.715567   27.126705 H          1 MOL1         0.3605
@<TRIPOS>BOND
    1     1     2    1
    2     1     3    1
    3     1     4    1
    4     1     5    1
    5     5     6    1
    6     5     7    1
    7     5     8    1
    8     8     9    1
    9     8    10    1
   10     8    11    1
   11    11    12    1
   12    11    13    1
   13    11    14    1
   14    14    15    1
   15    14    16    1
   16    14    17    1
   17    17    18    1
   18    17    19    1
   19    17    20    1
   20    20    21    1
   21    20    22    1
   22    22    23    1
   23    22    24    1
   24    22    25    1
   25    20    26    1
   26    26    27    1
   27    26    28    1
   28    26    29    1
@<TRIPOS>SUBSTRUCTURE
       1 MOL1            1 RESIDUE      1      MOL     
@<SCITEGIC>MOL_PROPERTY
VM2 Rank
SciTegic.value.IntegerValue
85

@<SCITEGIC>MOL_PROPERTY
Conf_Id
SciTegic.value.IntegerValue
958

@<SCITEGIC>MOL_PROPERTY
Probability
SciTegic.value.DoubleValue
0.03

@<SCITEGIC>MOL_PROPERTY
Sum Probability
SciTegic.value.DoubleValue
98.93

@<SCITEGIC>MOL_PROPERTY
Delta G
SciTegic.value.DoubleValue
3.400

@<SCITEGIC>MOL_PROPERTY
G
SciTegic.value.DoubleValue
37.102

@<SCITEGIC>MOL_PROPERTY
E
SciTegic.value.DoubleValue
-0.690

@<SCITEGIC>MOL_PROPERTY
-TS
SciTegic.value.DoubleValue
37.793

@<SCITEGIC>MOL_PROPERTY
U+W
SciTegic.value.DoubleValue
-24.835

@<SCITEGIC>MOL_PROPERTY
U
SciTegic.value.DoubleValue
27.471

@<SCITEGIC>MOL_PROPERTY
W
SciTegic.value.DoubleValue
-52.306

@<SCITEGIC>MOL_PROPERTY
W(PB)
SciTegic.value.DoubleValue
-54.789

@<SCITEGIC>MOL_PROPERTY
W(SA)
SciTegic.value.DoubleValue
2.483

@<SCITEGIC>MOL_PROPERTY
Valence
SciTegic.value.DoubleValue
6.231

@<SCITEGIC>MOL_PROPERTY
Coulomb
SciTegic.value.DoubleValue
20.131

@<SCITEGIC>MOL_PROPERTY
VdW
SciTegic.value.DoubleValue
1.110

@<SCITEGIC>MOL_PROPERTY
VdW6
SciTegic.value.DoubleValue
-9.661

@<SCITEGIC>MOL_PROPERTY
VdW12
SciTegic.value.DoubleValue
10.771

@<SCITEGIC>MOL_PROPERTY
Bond
SciTegic.value.DoubleValue
0.280

@<SCITEGIC>MOL_PROPERTY
Angle
SciTegic.value.DoubleValue
1.591

@<SCITEGIC>MOL_PROPERTY
Pdih
SciTegic.value.DoubleValue
4.359

@<SCITEGIC>MOL_PROPERTY
Idih
SciTegic.value.DoubleValue
0.000

@<SCITEGIC>MOL_PROPERTY
Tether
SciTegic.value.DoubleValue
0.000

@<TRIPOS>MOLECULE
guest-s15_vm2.mol2 : vm2 ligand conformer 86
          29          28           1
SMALL
USER_CHARGES
 
@<TRIPOS>ATOM
       1    C1      18.370880   20.095598   20.787143 C.3        1 MOL1        -0.2426
       2    H1      17.556614   20.294329   20.078386 H          1 MOL1         0.0959
       3    H2      17.945628   19.526034   21.622614 H          1 MOL1         0.0959
       4    H3      18.729103   21.061227   21.166674 H          1 MOL1         0.0959
       5    C2      19.507906   19.311970   20.096037 C.3        1 MOL1        -0.1410
       6    H4      19.785836   19.836871   19.171402 H          1 MOL1         0.0948
       7    H5      19.134292   18.326212   19.785575 H          1 MOL1         0.0948
       8    C3      20.781081   19.135459   20.962392 C.3        1 MOL1        -0.1435
       9    H6      21.527518   18.611779   20.349244 H          1 MOL1         0.0948
      10    H7      21.221252   20.115806   21.190967 H          1 MOL1         0.0948
      11    C4      20.570654   18.322014   22.265995 C.3        1 MOL1        -0.1435
      12    H8      21.473031   17.722948   22.450956 H          1 MOL1         0.0948
      13    H9      19.750773   17.602910   22.132431 H          1 MOL1         0.0948
      14    C5      20.315688   19.208034   23.509801 C.3        1 MOL1        -0.1435
      15    H10     21.176671   19.873114   23.664154 H          1 MOL1         0.0948
      16    H11     19.447468   19.853690   23.338359 H          1 MOL1         0.0948
      17    C6      20.091817   18.355567   24.782335 C.3        1 MOL1        -0.1500
      18    H12     20.950963   17.684673   24.915895 H          1 MOL1         0.0948
      19    H13     19.210720   17.713844   24.648802 H          1 MOL1         0.0948
      20    C7      19.923913   19.209155   26.057956 C.3        1 MOL1         0.1162
      21    H14     20.800499   19.857093   26.154998 H          1 MOL1         0.0910
      22    C8      19.851508   18.305953   27.299427 C.3        1 MOL1        -0.2491
      23    H15     18.984705   17.634865   27.252140 H          1 MOL1         0.0959
      24    H16     20.755623   17.690621   27.387162 H          1 MOL1         0.0959
      25    H17     19.768759   18.907527   28.213026 H          1 MOL1         0.0959
      26    N1      18.722553   20.112251   25.992915 N.4        1 MOL1        -0.5987
      27    H18     17.856818   19.574563   25.898341 H          1 MOL1         0.3605
      28    H19     18.778412   20.751624   25.195621 H          1 MOL1         0.3605
      29    H20     18.638210   20.683440   26.838690 H          1 MOL1         0.3605
@<TRIPOS>BOND
    1     1     2    1
    2     1     3    1
    3     1     4    1
    4     1     5    1
    5     5     6    1
    6     5     7    1
    7     5     8    1
    8     8     9    1
    9     8    10    1
   10     8    11    1
   11    11    12    1
   12    11    13    1
   13    11    14    1
   14    14    15    1
   15    14    16    1
   16    14    17    1
   17    17    18    1
   18    17    19    1
   19    17    20    1
   20    20    21    1
   21    20    22    1
   22    22    23    1
   23    22    24    1
   24    22    25    1
   25    20    26    1
   26    26    27    1
   27    26    28    1
   28    26    29    1
@<TRIPOS>SUBSTRUCTURE
       1 MOL1            1 RESIDUE      1      MOL     
@<SCITEGIC>MOL_PROPERTY
VM2 Rank
SciTegic.value.IntegerValue
86

@<SCITEGIC>MOL_PROPERTY
Conf_Id
SciTegic.value.IntegerValue
1316

@<SCITEGIC>MOL_PROPERTY
Probability
SciTegic.value.DoubleValue
0.03

@<SCITEGIC>MOL_PROPERTY
Sum Probability
SciTegic.value.DoubleValue
98.97

@<SCITEGIC>MOL_PROPERTY
Delta G
SciTegic.value.DoubleValue
3.418

@<SCITEGIC>MOL_PROPERTY
G
SciTegic.value.DoubleValue
37.121

@<SCITEGIC>MOL_PROPERTY
E
SciTegic.value.DoubleValue
-0.628

@<SCITEGIC>MOL_PROPERTY
-TS
SciTegic.value.DoubleValue
37.749

@<SCITEGIC>MOL_PROPERTY
U+W
SciTegic.value.DoubleValue
-24.773

@<SCITEGIC>MOL_PROPERTY
U
SciTegic.value.DoubleValue
27.668

@<SCITEGIC>MOL_PROPERTY
W
SciTegic.value.DoubleValue
-52.441

@<SCITEGIC>MOL_PROPERTY
W(PB)
SciTegic.value.DoubleValue
-54.941

@<SCITEGIC>MOL_PROPERTY
W(SA)
SciTegic.value.DoubleValue
2.500

@<SCITEGIC>MOL_PROPERTY
Valence
SciTegic.value.DoubleValue
6.132

@<SCITEGIC>MOL_PROPERTY
Coulomb
SciTegic.value.DoubleValue
20.412

@<SCITEGIC>MOL_PROPERTY
VdW
SciTegic.value.DoubleValue
1.124

@<SCITEGIC>MOL_PROPERTY
VdW6
SciTegic.value.DoubleValue
-9.581

@<SCITEGIC>MOL_PROPERTY
VdW12
SciTegic.value.DoubleValue
10.705

@<SCITEGIC>MOL_PROPERTY
Bond
SciTegic.value.DoubleValue
0.273

@<SCITEGIC>MOL_PROPERTY
Angle
SciTegic.value.DoubleValue
1.615

@<SCITEGIC>MOL_PROPERTY
Pdih
SciTegic.value.DoubleValue
4.244

@<SCITEGIC>MOL_PROPERTY
Idih
SciTegic.value.DoubleValue
0.000

@<SCITEGIC>MOL_PROPERTY
Tether
SciTegic.value.DoubleValue
0.000

@<TRIPOS>MOLECULE
guest-s15_vm2.mol2 : vm2 ligand conformer 87
          29          28           1
SMALL
USER_CHARGES
 
@<TRIPOS>ATOM
       1    C1      19.829525   20.917460   20.151005 C.3        1 MOL1        -0.2426
       2    H1      20.837679   21.277097   20.394989 H          1 MOL1         0.0959
       3    H2      19.673272   21.057483   19.073501 H          1 MOL1         0.0959
       4    H3      19.103849   21.547695   20.681506 H          1 MOL1         0.0959
       5    C2      19.661883   19.432701   20.537369 C.3        1 MOL1        -0.1410
       6    H4      20.376671   18.824850   19.965127 H          1 MOL1         0.0948
       7    H5      18.656404   19.092640   20.252237 H          1 MOL1         0.0948
       8    C3      19.878450   19.208425   22.050165 C.3        1 MOL1        -0.1435
       9    H6      20.886946   19.543535   22.329161 H          1 MOL1         0.0948
      10    H7      19.161639   19.828616   22.602965 H          1 MOL1         0.0948
      11    C4      19.694348   17.724146   22.443065 C.3        1 MOL1        -0.1435
      12    H8      20.289418   17.099256   21.762766 H          1 MOL1         0.0948
      13    H9      18.646706   17.432748   22.285576 H          1 MOL1         0.0948
      14    C5      20.113281   17.383614   23.896847 C.3        1 MOL1        -0.1435
      15    H10     19.977642   16.301525   24.030855 H          1 MOL1         0.0948
      16    H11     21.188276   17.558754   24.025752 H          1 MOL1         0.0948
      17    C6      19.293302   18.105090   25.001692 C.3        1 MOL1        -0.1500
      18    H12     19.308282   17.489611   25.911013 H          1 MOL1         0.0948
      19    H13     18.241917   18.146145   24.688011 H          1 MOL1         0.0948
      20    C7      19.779828   19.528137   25.369683 C.3        1 MOL1         0.1162
      21    H14     19.899804   20.111305   24.454265 H          1 MOL1         0.0910
      22    C8      21.131079   19.504473   26.106918 C.3        1 MOL1        -0.2491
      23    H15     21.075040   18.897772   27.019308 H          1 MOL1         0.0959
      24    H16     21.927705   19.098000   25.474014 H          1 MOL1         0.0959
      25    H17     21.431679   20.519873   26.393184 H          1 MOL1         0.0959
      26    N1      18.754304   20.251953   26.197256 N.4        1 MOL1        -0.5987
      27    H18     19.056002   21.205570   26.417022 H          1 MOL1         0.3605
      28    H19     18.585965   19.772819   27.086026 H          1 MOL1         0.3605
      29    H20     17.856210   20.320755   25.709930 H          1 MOL1         0.3605
@<TRIPOS>BOND
    1     1     2    1
    2     1     3    1
    3     1     4    1
    4     1     5    1
    5     5     6    1
    6     5     7    1
    7     5     8    1
    8     8     9    1
    9     8    10    1
   10     8    11    1
   11    11    12    1
   12    11    13    1
   13    11    14    1
   14    14    15    1
   15    14    16    1
   16    14    17    1
   17    17    18    1
   18    17    19    1
   19    17    20    1
   20    20    21    1
   21    20    22    1
   22    22    23    1
   23    22    24    1
   24    22    25    1
   25    20    26    1
   26    26    27    1
   27    26    28    1
   28    26    29    1
@<TRIPOS>SUBSTRUCTURE
       1 MOL1            1 RESIDUE      1      MOL     
@<SCITEGIC>MOL_PROPERTY
VM2 Rank
SciTegic.value.IntegerValue
87

@<SCITEGIC>MOL_PROPERTY
Conf_Id
SciTegic.value.IntegerValue
342

@<SCITEGIC>MOL_PROPERTY
Probability
SciTegic.value.DoubleValue
0.03

@<SCITEGIC>MOL_PROPERTY
Sum Probability
SciTegic.value.DoubleValue
99.00

@<SCITEGIC>MOL_PROPERTY
Delta G
SciTegic.value.DoubleValue
3.441

@<SCITEGIC>MOL_PROPERTY
G
SciTegic.value.DoubleValue
37.143

@<SCITEGIC>MOL_PROPERTY
E
SciTegic.value.DoubleValue
-0.497

@<SCITEGIC>MOL_PROPERTY
-TS
SciTegic.value.DoubleValue
37.640

@<SCITEGIC>MOL_PROPERTY
U+W
SciTegic.value.DoubleValue
-24.641

@<SCITEGIC>MOL_PROPERTY
U
SciTegic.value.DoubleValue
27.990

@<SCITEGIC>MOL_PROPERTY
W
SciTegic.value.DoubleValue
-52.632

@<SCITEGIC>MOL_PROPERTY
W(PB)
SciTegic.value.DoubleValue
-55.123

@<SCITEGIC>MOL_PROPERTY
W(SA)
SciTegic.value.DoubleValue
2.492

@<SCITEGIC>MOL_PROPERTY
Valence
SciTegic.value.DoubleValue
6.342

@<SCITEGIC>MOL_PROPERTY
Coulomb
SciTegic.value.DoubleValue
20.686

@<SCITEGIC>MOL_PROPERTY
VdW
SciTegic.value.DoubleValue
0.962

@<SCITEGIC>MOL_PROPERTY
VdW6
SciTegic.value.DoubleValue
-10.031

@<SCITEGIC>MOL_PROPERTY
VdW12
SciTegic.value.DoubleValue
10.993

@<SCITEGIC>MOL_PROPERTY
Bond
SciTegic.value.DoubleValue
0.289

@<SCITEGIC>MOL_PROPERTY
Angle
SciTegic.value.DoubleValue
2.142

@<SCITEGIC>MOL_PROPERTY
Pdih
SciTegic.value.DoubleValue
3.911

@<SCITEGIC>MOL_PROPERTY
Idih
SciTegic.value.DoubleValue
0.000

@<SCITEGIC>MOL_PROPERTY
Tether
SciTegic.value.DoubleValue
0.000

@<TRIPOS>MOLECULE
guest-s15_vm2.mol2 : vm2 ligand conformer 88
          29          28           1
SMALL
USER_CHARGES
 
@<TRIPOS>ATOM
       1    C1      20.772487   18.336616   19.823537 C.3        1 MOL1        -0.2426
       2    H1      20.778403   17.290857   19.489802 H          1 MOL1         0.0959
       3    H2      20.581437   18.969121   18.946797 H          1 MOL1         0.0959
       4    H3      21.774025   18.574381   20.205099 H          1 MOL1         0.0959
       5    C2      19.699038   18.555756   20.910374 C.3        1 MOL1        -0.1410
       6    H4      19.894799   17.879024   21.750852 H          1 MOL1         0.0948
       7    H5      18.715061   18.276424   20.508500 H          1 MOL1         0.0948
       8    C3      19.663525   20.027594   21.388018 C.3        1 MOL1        -0.1435
       9    H6      20.659064   20.345839   21.726668 H          1 MOL1         0.0948
      10    H7      19.421745   20.660862   20.523188 H          1 MOL1         0.0948
      11    C4      18.612539   20.289709   22.498115 C.3        1 MOL1        -0.1435
      12    H8      17.780714   19.577122   22.411556 H          1 MOL1         0.0948
      13    H9      18.171174   21.280779   22.323715 H          1 MOL1         0.0948
      14    C5      19.175648   20.277982   23.942886 C.3        1 MOL1        -0.1435
      15    H10     19.928747   21.071487   24.046063 H          1 MOL1         0.0948
      16    H11     18.356722   20.542764   24.624261 H          1 MOL1         0.0948
      17    C6      19.794520   18.924833   24.374312 C.3        1 MOL1        -0.1500
      18    H12     20.661532   18.711175   23.737130 H          1 MOL1         0.0948
      19    H13     19.070721   18.114910   24.213798 H          1 MOL1         0.0948
      20    C7      20.264645   18.917576   25.845156 C.3        1 MOL1         0.1162
      21    H14     20.950024   19.758243   25.990688 H          1 MOL1         0.0910
      22    C8      21.022794   17.617197   26.156357 C.3        1 MOL1        -0.2491
      23    H15     20.376934   16.739974   26.024835 H          1 MOL1         0.0959
      24    H16     21.891312   17.504182   25.495540 H          1 MOL1         0.0959
      25    H17     21.389904   17.619598   27.190106 H          1 MOL1         0.0959
      26    N1      19.130805   19.108737   26.815245 N.4        1 MOL1        -0.5987
      27    H18     19.464495   19.117849   27.783331 H          1 MOL1         0.3605
      28    H19     18.441141   18.356730   26.735586 H          1 MOL1         0.3605
      29    H20     18.643108   19.993498   26.651327 H          1 MOL1         0.3605
@<TRIPOS>BOND
    1     1     2    1
    2     1     3    1
    3     1     4    1
    4     1     5    1
    5     5     6    1
    6     5     7    1
    7     5     8    1
    8     8     9    1
    9     8    10    1
   10     8    11    1
   11    11    12    1
   12    11    13    1
   13    11    14    1
   14    14    15    1
   15    14    16    1
   16    14    17    1
   17    17    18    1
   18    17    19    1
   19    17    20    1
   20    20    21    1
   21    20    22    1
   22    22    23    1
   23    22    24    1
   24    22    25    1
   25    20    26    1
   26    26    27    1
   27    26    28    1
   28    26    29    1
@<TRIPOS>SUBSTRUCTURE
       1 MOL1            1 RESIDUE      1      MOL     
@<SCITEGIC>MOL_PROPERTY
VM2 Rank
SciTegic.value.IntegerValue
88

@<SCITEGIC>MOL_PROPERTY
Conf_Id
SciTegic.value.IntegerValue
284

@<SCITEGIC>MOL_PROPERTY
Probability
SciTegic.value.DoubleValue
0.03

@<SCITEGIC>MOL_PROPERTY
Sum Probability
SciTegic.value.DoubleValue
99.03

@<SCITEGIC>MOL_PROPERTY
Delta G
SciTegic.value.DoubleValue
3.447

@<SCITEGIC>MOL_PROPERTY
G
SciTegic.value.DoubleValue
37.150

@<SCITEGIC>MOL_PROPERTY
E
SciTegic.value.DoubleValue
-0.619

@<SCITEGIC>MOL_PROPERTY
-TS
SciTegic.value.DoubleValue
37.769

@<SCITEGIC>MOL_PROPERTY
U+W
SciTegic.value.DoubleValue
-24.764

@<SCITEGIC>MOL_PROPERTY
U
SciTegic.value.DoubleValue
27.456

@<SCITEGIC>MOL_PROPERTY
W
SciTegic.value.DoubleValue
-52.219

@<SCITEGIC>MOL_PROPERTY
W(PB)
SciTegic.value.DoubleValue
-54.678

@<SCITEGIC>MOL_PROPERTY
W(SA)
SciTegic.value.DoubleValue
2.459

@<SCITEGIC>MOL_PROPERTY
Valence
SciTegic.value.DoubleValue
6.249

@<SCITEGIC>MOL_PROPERTY
Coulomb
SciTegic.value.DoubleValue
20.070

@<SCITEGIC>MOL_PROPERTY
VdW
SciTegic.value.DoubleValue
1.137

@<SCITEGIC>MOL_PROPERTY
VdW6
SciTegic.value.DoubleValue
-9.668

@<SCITEGIC>MOL_PROPERTY
VdW12
SciTegic.value.DoubleValue
10.805

@<SCITEGIC>MOL_PROPERTY
Bond
SciTegic.value.DoubleValue
0.280

@<SCITEGIC>MOL_PROPERTY
Angle
SciTegic.value.DoubleValue
1.673

@<SCITEGIC>MOL_PROPERTY
Pdih
SciTegic.value.DoubleValue
4.296

@<SCITEGIC>MOL_PROPERTY
Idih
SciTegic.value.DoubleValue
0.000

@<SCITEGIC>MOL_PROPERTY
Tether
SciTegic.value.DoubleValue
0.000

@<TRIPOS>MOLECULE
guest-s15_vm2.mol2 : vm2 ligand conformer 89
          29          28           1
SMALL
USER_CHARGES
 
@<TRIPOS>ATOM
       1    C1      19.199972   20.841748   20.638736 C.3        1 MOL1        -0.2426
       2    H1      19.295642   21.088509   21.701688 H          1 MOL1         0.0959
       3    H2      20.054683   21.284957   20.111394 H          1 MOL1         0.0959
       4    H3      18.289751   21.328119   20.264790 H          1 MOL1         0.0959
       5    C2      19.135357   19.315437   20.398021 C.3        1 MOL1        -0.1410
       6    H4      19.019941   19.148070   19.317958 H          1 MOL1         0.0948
       7    H5      18.236237   18.892078   20.866958 H          1 MOL1         0.0948
       8    C3      20.401244   18.562247   20.881866 C.3        1 MOL1        -0.1435
       9    H6      20.597742   17.739029   20.181109 H          1 MOL1         0.0948
      10    H7      21.280424   19.218345   20.820830 H          1 MOL1         0.0948
      11    C4      20.291577   17.948847   22.301686 C.3        1 MOL1        -0.1435
      12    H8      21.213880   17.387131   22.504340 H          1 MOL1         0.0948
      13    H9      19.475610   17.213214   22.318970 H          1 MOL1         0.0948
      14    C5      20.073419   18.984551   23.428816 C.3        1 MOL1        -0.1435
      15    H10     20.834698   19.773475   23.355311 H          1 MOL1         0.0948
      16    H11     19.094456   19.460838   23.295716 H          1 MOL1         0.0948
      17    C6      20.141470   18.329792   24.829960 C.3        1 MOL1        -0.1500
      18    H12     21.104685   17.812698   24.934180 H          1 MOL1         0.0948
      19    H13     19.361816   17.561564   24.919161 H          1 MOL1         0.0948
      20    C7      19.999188   19.350816   25.979464 C.3        1 MOL1         0.1162
      21    H14     20.768856   20.118537   25.853523 H          1 MOL1         0.0910
      22    C8      20.221220   18.662728   27.335753 C.3        1 MOL1        -0.2491
      23    H15     20.157534   19.389519   28.154974 H          1 MOL1         0.0959
      24    H16     19.470917   17.881809   27.512270 H          1 MOL1         0.0959
      25    H17     21.214356   18.198486   27.379499 H          1 MOL1         0.0959
      26    N1      18.672552   20.059832   25.959698 N.4        1 MOL1        -0.5987
      27    H18     18.529406   20.560584   25.078632 H          1 MOL1         0.3605
      28    H19     18.604037   20.745731   26.717037 H          1 MOL1         0.3605
      29    H20     17.896655   19.401658   26.070969 H          1 MOL1         0.3605
@<TRIPOS>BOND
    1     1     2    1
    2     1     3    1
    3     1     4    1
    4     1     5    1
    5     5     6    1
    6     5     7    1
    7     5     8    1
    8     8     9    1
    9     8    10    1
   10     8    11    1
   11    11    12    1
   12    11    13    1
   13    11    14    1
   14    14    15    1
   15    14    16    1
   16    14    17    1
   17    17    18    1
   18    17    19    1
   19    17    20    1
   20    20    21    1
   21    20    22    1
   22    22    23    1
   23    22    24    1
   24    22    25    1
   25    20    26    1
   26    26    27    1
   27    26    28    1
   28    26    29    1
@<TRIPOS>SUBSTRUCTURE
       1 MOL1            1 RESIDUE      1      MOL     
@<SCITEGIC>MOL_PROPERTY
VM2 Rank
SciTegic.value.IntegerValue
89

@<SCITEGIC>MOL_PROPERTY
Conf_Id
SciTegic.value.IntegerValue
1611

@<SCITEGIC>MOL_PROPERTY
Probability
SciTegic.value.DoubleValue
0.03

@<SCITEGIC>MOL_PROPERTY
Sum Probability
SciTegic.value.DoubleValue
99.06

@<SCITEGIC>MOL_PROPERTY
Delta G
SciTegic.value.DoubleValue
3.449

@<SCITEGIC>MOL_PROPERTY
G
SciTegic.value.DoubleValue
37.151

@<SCITEGIC>MOL_PROPERTY
E
SciTegic.value.DoubleValue
-0.582

@<SCITEGIC>MOL_PROPERTY
-TS
SciTegic.value.DoubleValue
37.733

@<SCITEGIC>MOL_PROPERTY
U+W
SciTegic.value.DoubleValue
-24.727

@<SCITEGIC>MOL_PROPERTY
U
SciTegic.value.DoubleValue
27.696

@<SCITEGIC>MOL_PROPERTY
W
SciTegic.value.DoubleValue
-52.423

@<SCITEGIC>MOL_PROPERTY
W(PB)
SciTegic.value.DoubleValue
-54.887

@<SCITEGIC>MOL_PROPERTY
W(SA)
SciTegic.value.DoubleValue
2.465

@<SCITEGIC>MOL_PROPERTY
Valence
SciTegic.value.DoubleValue
6.158

@<SCITEGIC>MOL_PROPERTY
Coulomb
SciTegic.value.DoubleValue
20.386

@<SCITEGIC>MOL_PROPERTY
VdW
SciTegic.value.DoubleValue
1.152

@<SCITEGIC>MOL_PROPERTY
VdW6
SciTegic.value.DoubleValue
-9.567

@<SCITEGIC>MOL_PROPERTY
VdW12
SciTegic.value.DoubleValue
10.718

@<SCITEGIC>MOL_PROPERTY
Bond
SciTegic.value.DoubleValue
0.273

@<SCITEGIC>MOL_PROPERTY
Angle
SciTegic.value.DoubleValue
1.661

@<SCITEGIC>MOL_PROPERTY
Pdih
SciTegic.value.DoubleValue
4.223

@<SCITEGIC>MOL_PROPERTY
Idih
SciTegic.value.DoubleValue
0.000

@<SCITEGIC>MOL_PROPERTY
Tether
SciTegic.value.DoubleValue
0.000

@<TRIPOS>MOLECULE
guest-s15_vm2.mol2 : vm2 ligand conformer 90
          29          28           1
SMALL
USER_CHARGES
 
@<TRIPOS>ATOM
       1    C1      18.257782   19.144582   19.997828 C.3        1 MOL1        -0.2426
       2    H1      18.012240   20.206712   19.868080 H          1 MOL1         0.0959
       3    H2      18.791495   18.804769   19.100667 H          1 MOL1         0.0959
       4    H3      17.315045   18.585729   20.060590 H          1 MOL1         0.0959
       5    C2      19.107730   18.923332   21.266882 C.3        1 MOL1        -0.1410
       6    H4      19.315293   17.850659   21.384313 H          1 MOL1         0.0948
       7    H5      18.524639   19.239823   22.141452 H          1 MOL1         0.0948
       8    C3      20.436261   19.710930   21.207638 C.3        1 MOL1        -0.1435
       9    H6      20.944810   19.481244   20.261114 H          1 MOL1         0.0948
      10    H7      20.220576   20.788021   21.184253 H          1 MOL1         0.0948
      11    C4      21.415847   19.406510   22.370431 C.3        1 MOL1        -0.1435
      12    H8      22.330035   19.989472   22.192001 H          1 MOL1         0.0948
      13    H9      21.726453   18.353228   22.335960 H          1 MOL1         0.0948
      14    C5      20.882054   19.766682   23.781470 C.3        1 MOL1        -0.1435
      15    H10     21.722972   20.132650   24.386941 H          1 MOL1         0.0948
      16    H11     20.174688   20.602968   23.706517 H          1 MOL1         0.0948
      17    C6      20.244530   18.562920   24.523577 C.3        1 MOL1        -0.1500
      18    H12     20.986523   17.755764   24.585496 H          1 MOL1         0.0948
      19    H13     19.398146   18.159897   23.956327 H          1 MOL1         0.0948
      20    C7      19.780534   18.917767   25.952615 C.3        1 MOL1         0.1162
      21    H14     20.633496   19.334788   26.496843 H          1 MOL1         0.0910
      22    C8      19.307477   17.655076   26.690307 C.3        1 MOL1        -0.2491
      23    H15     19.010009   17.894715   27.718652 H          1 MOL1         0.0959
      24    H16     18.448482   17.197470   26.183683 H          1 MOL1         0.0959
      25    H17     20.110778   16.909545   26.741718 H          1 MOL1         0.0959
      26    N1      18.703783   19.968200   25.963252 N.4        1 MOL1        -0.5987
      27    H18     18.424737   20.207387   26.919084 H          1 MOL1         0.3605
      28    H19     17.865981   19.648633   25.470003 H          1 MOL1         0.3605
      29    H20     19.018983   20.830765   25.511332 H          1 MOL1         0.3605
@<TRIPOS>BOND
    1     1     2    1
    2     1     3    1
    3     1     4    1
    4     1     5    1
    5     5     6    1
    6     5     7    1
    7     5     8    1
    8     8     9    1
    9     8    10    1
   10     8    11    1
   11    11    12    1
   12    11    13    1
   13    11    14    1
   14    14    15    1
   15    14    16    1
   16    14    17    1
   17    17    18    1
   18    17    19    1
   19    17    20    1
   20    20    21    1
   21    20    22    1
   22    22    23    1
   23    22    24    1
   24    22    25    1
   25    20    26    1
   26    26    27    1
   27    26    28    1
   28    26    29    1
@<TRIPOS>SUBSTRUCTURE
       1 MOL1            1 RESIDUE      1      MOL     
@<SCITEGIC>MOL_PROPERTY
VM2 Rank
SciTegic.value.IntegerValue
90

@<SCITEGIC>MOL_PROPERTY
Conf_Id
SciTegic.value.IntegerValue
376

@<SCITEGIC>MOL_PROPERTY
Probability
SciTegic.value.DoubleValue
0.03

@<SCITEGIC>MOL_PROPERTY
Sum Probability
SciTegic.value.DoubleValue
99.09

@<SCITEGIC>MOL_PROPERTY
Delta G
SciTegic.value.DoubleValue
3.517

@<SCITEGIC>MOL_PROPERTY
G
SciTegic.value.DoubleValue
37.220

@<SCITEGIC>MOL_PROPERTY
E
SciTegic.value.DoubleValue
-0.531

@<SCITEGIC>MOL_PROPERTY
-TS
SciTegic.value.DoubleValue
37.750

@<SCITEGIC>MOL_PROPERTY
U+W
SciTegic.value.DoubleValue
-24.675

@<SCITEGIC>MOL_PROPERTY
U
SciTegic.value.DoubleValue
27.893

@<SCITEGIC>MOL_PROPERTY
W
SciTegic.value.DoubleValue
-52.568

@<SCITEGIC>MOL_PROPERTY
W(PB)
SciTegic.value.DoubleValue
-55.031

@<SCITEGIC>MOL_PROPERTY
W(SA)
SciTegic.value.DoubleValue
2.463

@<SCITEGIC>MOL_PROPERTY
Valence
SciTegic.value.DoubleValue
6.177

@<SCITEGIC>MOL_PROPERTY
Coulomb
SciTegic.value.DoubleValue
20.674

@<SCITEGIC>MOL_PROPERTY
VdW
SciTegic.value.DoubleValue
1.042

@<SCITEGIC>MOL_PROPERTY
VdW6
SciTegic.value.DoubleValue
-9.722

@<SCITEGIC>MOL_PROPERTY
VdW12
SciTegic.value.DoubleValue
10.764

@<SCITEGIC>MOL_PROPERTY
Bond
SciTegic.value.DoubleValue
0.282

@<SCITEGIC>MOL_PROPERTY
Angle
SciTegic.value.DoubleValue
1.681

@<SCITEGIC>MOL_PROPERTY
Pdih
SciTegic.value.DoubleValue
4.213

@<SCITEGIC>MOL_PROPERTY
Idih
SciTegic.value.DoubleValue
0.000

@<SCITEGIC>MOL_PROPERTY
Tether
SciTegic.value.DoubleValue
0.000

@<TRIPOS>MOLECULE
guest-s15_vm2.mol2 : vm2 ligand conformer 91
          29          28           1
SMALL
USER_CHARGES
 
@<TRIPOS>ATOM
       1    C1      18.348041   20.199081   20.267841 C.3        1 MOL1        -0.2426
       2    H1      17.712937   19.881007   21.103763 H          1 MOL1         0.0959
       3    H2      18.681748   21.227131   20.459604 H          1 MOL1         0.0959
       4    H3      17.722673   20.212074   19.365798 H          1 MOL1         0.0959
       5    C2      19.552853   19.250137   20.076117 C.3        1 MOL1        -0.1410
       6    H4      20.082604   19.532830   19.155677 H          1 MOL1         0.0948
       7    H5      19.193568   18.223227   19.920879 H          1 MOL1         0.0948
       8    C3      20.555618   19.281501   21.254710 C.3        1 MOL1        -0.1435
       9    H6      21.428234   18.670423   20.985584 H          1 MOL1         0.0948
      10    H7      20.926950   20.306338   21.392759 H          1 MOL1         0.0948
      11    C4      19.961666   18.757723   22.584127 C.3        1 MOL1        -0.1435
      12    H8      19.551761   17.750540   22.426838 H          1 MOL1         0.0948
      13    H9      19.124636   19.395789   22.883413 H          1 MOL1         0.0948
      14    C5      21.029389   18.708627   23.704937 C.3        1 MOL1        -0.1435
      15    H10     21.850428   18.062499   23.364409 H          1 MOL1         0.0948
      16    H11     21.470536   19.703369   23.857927 H          1 MOL1         0.0948
      17    C6      20.502982   18.149555   25.053171 C.3        1 MOL1        -0.1500
      18    H12     21.349352   17.678846   25.571052 H          1 MOL1         0.0948
      19    H13     19.775192   17.346716   24.875590 H          1 MOL1         0.0948
      20    C7      19.908018   19.217065   26.001339 C.3        1 MOL1         0.1162
      21    H14     20.661838   19.995914   26.152042 H          1 MOL1         0.0910
      22    C8      19.585567   18.591799   27.368119 C.3        1 MOL1        -0.2491
      23    H15     20.484757   18.154101   27.819362 H          1 MOL1         0.0959
      24    H16     19.201817   19.350257   28.061594 H          1 MOL1         0.0959
      25    H17     18.830709   17.800991   27.274478 H          1 MOL1         0.0959
      26    N1      18.691866   19.900512   25.443639 N.4        1 MOL1        -0.5987
      27    H18     18.330517   20.607028   26.090937 H          1 MOL1         0.3605
      28    H19     17.938223   19.231507   25.265110 H          1 MOL1         0.3605
      29    H20     18.907129   20.372430   24.561416 H          1 MOL1         0.3605
@<TRIPOS>BOND
    1     1     2    1
    2     1     3    1
    3     1     4    1
    4     1     5    1
    5     5     6    1
    6     5     7    1
    7     5     8    1
    8     8     9    1
    9     8    10    1
   10     8    11    1
   11    11    12    1
   12    11    13    1
   13    11    14    1
   14    14    15    1
   15    14    16    1
   16    14    17    1
   17    17    18    1
   18    17    19    1
   19    17    20    1
   20    20    21    1
   21    20    22    1
   22    22    23    1
   23    22    24    1
   24    22    25    1
   25    20    26    1
   26    26    27    1
   27    26    28    1
   28    26    29    1
@<TRIPOS>SUBSTRUCTURE
       1 MOL1            1 RESIDUE      1      MOL     
@<SCITEGIC>MOL_PROPERTY
VM2 Rank
SciTegic.value.IntegerValue
91

@<SCITEGIC>MOL_PROPERTY
Conf_Id
SciTegic.value.IntegerValue
629

@<SCITEGIC>MOL_PROPERTY
Probability
SciTegic.value.DoubleValue
0.03

@<SCITEGIC>MOL_PROPERTY
Sum Probability
SciTegic.value.DoubleValue
99.12

@<SCITEGIC>MOL_PROPERTY
Delta G
SciTegic.value.DoubleValue
3.546

@<SCITEGIC>MOL_PROPERTY
G
SciTegic.value.DoubleValue
37.248

@<SCITEGIC>MOL_PROPERTY
E
SciTegic.value.DoubleValue
-0.111

@<SCITEGIC>MOL_PROPERTY
-TS
SciTegic.value.DoubleValue
37.359

@<SCITEGIC>MOL_PROPERTY
U+W
SciTegic.value.DoubleValue
-24.255

@<SCITEGIC>MOL_PROPERTY
U
SciTegic.value.DoubleValue
27.845

@<SCITEGIC>MOL_PROPERTY
W
SciTegic.value.DoubleValue
-52.100

@<SCITEGIC>MOL_PROPERTY
W(PB)
SciTegic.value.DoubleValue
-54.588

@<SCITEGIC>MOL_PROPERTY
W(SA)
SciTegic.value.DoubleValue
2.488

@<SCITEGIC>MOL_PROPERTY
Valence
SciTegic.value.DoubleValue
5.677

@<SCITEGIC>MOL_PROPERTY
Coulomb
SciTegic.value.DoubleValue
20.986

@<SCITEGIC>MOL_PROPERTY
VdW
SciTegic.value.DoubleValue
1.182

@<SCITEGIC>MOL_PROPERTY
VdW6
SciTegic.value.DoubleValue
-9.500

@<SCITEGIC>MOL_PROPERTY
VdW12
SciTegic.value.DoubleValue
10.681

@<SCITEGIC>MOL_PROPERTY
Bond
SciTegic.value.DoubleValue
0.294

@<SCITEGIC>MOL_PROPERTY
Angle
SciTegic.value.DoubleValue
1.638

@<SCITEGIC>MOL_PROPERTY
Pdih
SciTegic.value.DoubleValue
3.746

@<SCITEGIC>MOL_PROPERTY
Idih
SciTegic.value.DoubleValue
0.000

@<SCITEGIC>MOL_PROPERTY
Tether
SciTegic.value.DoubleValue
0.000

@<TRIPOS>MOLECULE
guest-s15_vm2.mol2 : vm2 ligand conformer 92
          29          28           1
SMALL
USER_CHARGES
 
@<TRIPOS>ATOM
       1    C1      20.128861   20.859175   20.080978 C.3        1 MOL1        -0.2426
       2    H1      20.700926   21.520970   20.744312 H          1 MOL1         0.0959
       3    H2      20.590645   20.898530   19.085868 H          1 MOL1         0.0959
       4    H3      19.109696   21.258230   19.995580 H          1 MOL1         0.0959
       5    C2      20.114817   19.412353   20.618076 C.3        1 MOL1        -0.1410
       6    H4      21.144172   19.029637   20.661358 H          1 MOL1         0.0948
       7    H5      19.566315   18.768617   19.916192 H          1 MOL1         0.0948
       8    C3      19.468486   19.328811   22.018415 C.3        1 MOL1        -0.1435
       9    H6      20.017139   19.988748   22.698789 H          1 MOL1         0.0948
      10    H7      18.439210   19.709292   21.964922 H          1 MOL1         0.0948
      11    C4      19.455850   17.876789   22.556273 C.3        1 MOL1        -0.1435
      12    H8      20.480292   17.485022   22.621194 H          1 MOL1         0.0948
      13    H9      18.937888   17.247259   21.819383 H          1 MOL1         0.0948
      14    C5      18.734908   17.709944   23.919629 C.3        1 MOL1        -0.1435
      15    H10     17.861399   18.372939   23.975697 H          1 MOL1         0.0948
      16    H11     18.327004   16.690370   23.958909 H          1 MOL1         0.0948
      17    C6      19.644259   17.886269   25.165959 C.3        1 MOL1        -0.1500
      18    H12     20.462047   17.155437   25.111476 H          1 MOL1         0.0948
      19    H13     19.065245   17.625291   26.061826 H          1 MOL1         0.0948
      20    C7      20.243712   19.296261   25.352834 C.3        1 MOL1         0.1162
      21    H14     20.851088   19.531867   24.475144 H          1 MOL1         0.0910
      22    C8      21.161312   19.327847   26.585223 C.3        1 MOL1        -0.2491
      23    H15     21.621892   20.316723   26.700872 H          1 MOL1         0.0959
      24    H16     20.603216   19.101422   27.502385 H          1 MOL1         0.0959
      25    H17     21.970385   18.593290   26.487365 H          1 MOL1         0.0959
      26    N1      19.183795   20.358551   25.456613 N.4        1 MOL1        -0.5987
      27    H18     18.583669   20.205586   26.271531 H          1 MOL1         0.3605
      28    H19     18.583619   20.364267   24.627518 H          1 MOL1         0.3605
      29    H20     19.595499   21.291606   25.549277 H          1 MOL1         0.3605
@<TRIPOS>BOND
    1     1     2    1
    2     1     3    1
    3     1     4    1
    4     1     5    1
    5     5     6    1
    6     5     7    1
    7     5     8    1
    8     8     9    1
    9     8    10    1
   10     8    11    1
   11    11    12    1
   12    11    13    1
   13    11    14    1
   14    14    15    1
   15    14    16    1
   16    14    17    1
   17    17    18    1
   18    17    19    1
   19    17    20    1
   20    20    21    1
   21    20    22    1
   22    22    23    1
   23    22    24    1
   24    22    25    1
   25    20    26    1
   26    26    27    1
   27    26    28    1
   28    26    29    1
@<TRIPOS>SUBSTRUCTURE
       1 MOL1            1 RESIDUE      1      MOL     
@<SCITEGIC>MOL_PROPERTY
VM2 Rank
SciTegic.value.IntegerValue
92

@<SCITEGIC>MOL_PROPERTY
Conf_Id
SciTegic.value.IntegerValue
901

@<SCITEGIC>MOL_PROPERTY
Probability
SciTegic.value.DoubleValue
0.03

@<SCITEGIC>MOL_PROPERTY
Sum Probability
SciTegic.value.DoubleValue
99.15

@<SCITEGIC>MOL_PROPERTY
Delta G
SciTegic.value.DoubleValue
3.546

@<SCITEGIC>MOL_PROPERTY
G
SciTegic.value.DoubleValue
37.248

@<SCITEGIC>MOL_PROPERTY
E
SciTegic.value.DoubleValue
-0.604

@<SCITEGIC>MOL_PROPERTY
-TS
SciTegic.value.DoubleValue
37.852

@<SCITEGIC>MOL_PROPERTY
U+W
SciTegic.value.DoubleValue
-24.748

@<SCITEGIC>MOL_PROPERTY
U
SciTegic.value.DoubleValue
27.636

@<SCITEGIC>MOL_PROPERTY
W
SciTegic.value.DoubleValue
-52.384

@<SCITEGIC>MOL_PROPERTY
W(PB)
SciTegic.value.DoubleValue
-54.895

@<SCITEGIC>MOL_PROPERTY
W(SA)
SciTegic.value.DoubleValue
2.510

@<SCITEGIC>MOL_PROPERTY
Valence
SciTegic.value.DoubleValue
5.823

@<SCITEGIC>MOL_PROPERTY
Coulomb
SciTegic.value.DoubleValue
21.132

@<SCITEGIC>MOL_PROPERTY
VdW
SciTegic.value.DoubleValue
0.681

@<SCITEGIC>MOL_PROPERTY
VdW6
SciTegic.value.DoubleValue
-10.106

@<SCITEGIC>MOL_PROPERTY
VdW12
SciTegic.value.DoubleValue
10.787

@<SCITEGIC>MOL_PROPERTY
Bond
SciTegic.value.DoubleValue
0.276

@<SCITEGIC>MOL_PROPERTY
Angle
SciTegic.value.DoubleValue
1.914

@<SCITEGIC>MOL_PROPERTY
Pdih
SciTegic.value.DoubleValue
3.633

@<SCITEGIC>MOL_PROPERTY
Idih
SciTegic.value.DoubleValue
0.000

@<SCITEGIC>MOL_PROPERTY
Tether
SciTegic.value.DoubleValue
0.000

@<TRIPOS>MOLECULE
guest-s15_vm2.mol2 : vm2 ligand conformer 93
          29          28           1
SMALL
USER_CHARGES
 
@<TRIPOS>ATOM
       1    C1      20.703851   19.216438   19.875677 C.3        1 MOL1        -0.2426
       2    H1      21.692257   19.065195   20.328653 H          1 MOL1         0.0959
       3    H2      20.211216   18.239769   19.790945 H          1 MOL1         0.0959
       4    H3      20.855557   19.599624   18.858298 H          1 MOL1         0.0959
       5    C2      19.857707   20.207337   20.706653 C.3        1 MOL1        -0.1410
       6    H4      18.867340   20.324821   20.245037 H          1 MOL1         0.0948
       7    H5      20.333015   21.197551   20.670739 H          1 MOL1         0.0948
       8    C3      19.698836   19.784632   22.186798 C.3        1 MOL1        -0.1435
       9    H6      20.695715   19.704075   22.638505 H          1 MOL1         0.0948
      10    H7      19.167059   20.582290   22.723221 H          1 MOL1         0.0948
      11    C4      18.933116   18.450351   22.362327 C.3        1 MOL1        -0.1435
      12    H8      19.549221   17.619388   21.993656 H          1 MOL1         0.0948
      13    H9      18.035322   18.469936   21.729272 H          1 MOL1         0.0948
      14    C5      18.489762   18.147486   23.817064 C.3        1 MOL1        -0.1435
      15    H10     17.785890   18.915402   24.162374 H          1 MOL1         0.0948
      16    H11     17.913074   17.212451   23.795105 H          1 MOL1         0.0948
      17    C6      19.651936   17.964961   24.831111 C.3        1 MOL1        -0.1500
      18    H12     20.467683   17.412321   24.346327 H          1 MOL1         0.0948
      19    H13     19.303384   17.326131   25.653511 H          1 MOL1         0.0948
      20    C7      20.197302   19.279174   25.436732 C.3        1 MOL1         0.1162
      21    H14     20.490231   19.949563   24.626127 H          1 MOL1         0.0910
      22    C8      21.441928   18.994358   26.292021 C.3        1 MOL1        -0.2491
      23    H15     22.227216   18.519249   25.690886 H          1 MOL1         0.0959
      24    H16     21.853704   19.925349   26.700803 H          1 MOL1         0.0959
      25    H17     21.203684   18.328435   27.130913 H          1 MOL1         0.0959
      26    N1      19.161561   20.011264   26.245617 N.4        1 MOL1        -0.5987
      27    H18     18.342143   20.246355   25.679352 H          1 MOL1         0.3605
      28    H19     19.533374   20.886258   26.626067 H          1 MOL1         0.3605
      29    H20     18.838568   19.446523   27.035732 H          1 MOL1         0.3605
@<TRIPOS>BOND
    1     1     2    1
    2     1     3    1
    3     1     4    1
    4     1     5    1
    5     5     6    1
    6     5     7    1
    7     5     8    1
    8     8     9    1
    9     8    10    1
   10     8    11    1
   11    11    12    1
   12    11    13    1
   13    11    14    1
   14    14    15    1
   15    14    16    1
   16    14    17    1
   17    17    18    1
   18    17    19    1
   19    17    20    1
   20    20    21    1
   21    20    22    1
   22    22    23    1
   23    22    24    1
   24    22    25    1
   25    20    26    1
   26    26    27    1
   27    26    28    1
   28    26    29    1
@<TRIPOS>SUBSTRUCTURE
       1 MOL1            1 RESIDUE      1      MOL     
@<SCITEGIC>MOL_PROPERTY
VM2 Rank
SciTegic.value.IntegerValue
93

@<SCITEGIC>MOL_PROPERTY
Conf_Id
SciTegic.value.IntegerValue
292

@<SCITEGIC>MOL_PROPERTY
Probability
SciTegic.value.DoubleValue
0.03

@<SCITEGIC>MOL_PROPERTY
Sum Probability
SciTegic.value.DoubleValue
99.17

@<SCITEGIC>MOL_PROPERTY
Delta G
SciTegic.value.DoubleValue
3.583

@<SCITEGIC>MOL_PROPERTY
G
SciTegic.value.DoubleValue
37.286

@<SCITEGIC>MOL_PROPERTY
E
SciTegic.value.DoubleValue
-0.558

@<SCITEGIC>MOL_PROPERTY
-TS
SciTegic.value.DoubleValue
37.844

@<SCITEGIC>MOL_PROPERTY
U+W
SciTegic.value.DoubleValue
-24.703

@<SCITEGIC>MOL_PROPERTY
U
SciTegic.value.DoubleValue
27.777

@<SCITEGIC>MOL_PROPERTY
W
SciTegic.value.DoubleValue
-52.480

@<SCITEGIC>MOL_PROPERTY
W(PB)
SciTegic.value.DoubleValue
-54.933

@<SCITEGIC>MOL_PROPERTY
W(SA)
SciTegic.value.DoubleValue
2.453

@<SCITEGIC>MOL_PROPERTY
Valence
SciTegic.value.DoubleValue
6.108

@<SCITEGIC>MOL_PROPERTY
Coulomb
SciTegic.value.DoubleValue
20.731

@<SCITEGIC>MOL_PROPERTY
VdW
SciTegic.value.DoubleValue
0.938

@<SCITEGIC>MOL_PROPERTY
VdW6
SciTegic.value.DoubleValue
-10.573

@<SCITEGIC>MOL_PROPERTY
VdW12
SciTegic.value.DoubleValue
11.511

@<SCITEGIC>MOL_PROPERTY
Bond
SciTegic.value.DoubleValue
0.307

@<SCITEGIC>MOL_PROPERTY
Angle
SciTegic.value.DoubleValue
1.996

@<SCITEGIC>MOL_PROPERTY
Pdih
SciTegic.value.DoubleValue
3.806

@<SCITEGIC>MOL_PROPERTY
Idih
SciTegic.value.DoubleValue
0.000

@<SCITEGIC>MOL_PROPERTY
Tether
SciTegic.value.DoubleValue
0.000

@<TRIPOS>MOLECULE
guest-s15_vm2.mol2 : vm2 ligand conformer 94
          29          28           1
SMALL
USER_CHARGES
 
@<TRIPOS>ATOM
       1    C1      20.003443   19.912782   19.169003 C.3        1 MOL1        -0.2426
       2    H1      19.894280   18.916548   18.720844 H          1 MOL1         0.0959
       3    H2      19.122849   20.508920   18.896244 H          1 MOL1         0.0959
       4    H3      20.884871   20.389422   18.720749 H          1 MOL1         0.0959
       5    C2      20.156093   19.817154   20.701792 C.3        1 MOL1        -0.1410
       6    H4      20.293233   20.825068   21.117671 H          1 MOL1         0.0948
       7    H5      21.066862   19.249540   20.934909 H          1 MOL1         0.0948
       8    C3      18.926305   19.144615   21.356158 C.3        1 MOL1        -0.1435
       9    H6      18.019112   19.685352   21.052949 H          1 MOL1         0.0948
      10    H7      18.816728   18.120729   20.972851 H          1 MOL1         0.0948
      11    C4      18.988821   19.116457   22.902881 C.3        1 MOL1        -0.1435
      12    H8      18.040267   18.710928   23.281161 H          1 MOL1         0.0948
      13    H9      19.066524   20.147777   23.268126 H          1 MOL1         0.0948
      14    C5      20.163055   18.267803   23.451913 C.3        1 MOL1        -0.1435
      15    H10     20.196923   17.317026   22.902204 H          1 MOL1         0.0948
      16    H11     21.116252   18.773687   23.247847 H          1 MOL1         0.0948
      17    C6      20.076172   17.940665   24.965998 C.3        1 MOL1        -0.1500
      18    H12     20.885964   17.233305   25.189564 H          1 MOL1         0.0948
      19    H13     19.142737   17.405892   25.185860 H          1 MOL1         0.0948
      20    C7      20.218949   19.163071   25.903401 C.3        1 MOL1         0.1162
      21    H14     21.001298   19.815362   25.503435 H          1 MOL1         0.0910
      22    C8      20.642262   18.710871   27.310723 C.3        1 MOL1        -0.2491
      23    H15     20.762782   19.574321   27.976616 H          1 MOL1         0.0959
      24    H16     19.895627   18.039271   27.752904 H          1 MOL1         0.0959
      25    H17     21.602592   18.181212   27.278933 H          1 MOL1         0.0959
      26    N1      18.960900   19.982581   25.992130 N.4        1 MOL1        -0.5987
      27    H18     19.092954   20.806976   26.585157 H          1 MOL1         0.3605
      28    H19     18.191064   19.438687   26.390943 H          1 MOL1         0.3605
      29    H20     18.662431   20.309358   25.070437 H          1 MOL1         0.3605
@<TRIPOS>BOND
    1     1     2    1
    2     1     3    1
    3     1     4    1
    4     1     5    1
    5     5     6    1
    6     5     7    1
    7     5     8    1
    8     8     9    1
    9     8    10    1
   10     8    11    1
   11    11    12    1
   12    11    13    1
   13    11    14    1
   14    14    15    1
   15    14    16    1
   16    14    17    1
   17    17    18    1
   18    17    19    1
   19    17    20    1
   20    20    21    1
   21    20    22    1
   22    22    23    1
   23    22    24    1
   24    22    25    1
   25    20    26    1
   26    26    27    1
   27    26    28    1
   28    26    29    1
@<TRIPOS>SUBSTRUCTURE
       1 MOL1            1 RESIDUE      1      MOL     
@<SCITEGIC>MOL_PROPERTY
VM2 Rank
SciTegic.value.IntegerValue
94

@<SCITEGIC>MOL_PROPERTY
Conf_Id
SciTegic.value.IntegerValue
859

@<SCITEGIC>MOL_PROPERTY
Probability
SciTegic.value.DoubleValue
0.03

@<SCITEGIC>MOL_PROPERTY
Sum Probability
SciTegic.value.DoubleValue
99.20

@<SCITEGIC>MOL_PROPERTY
Delta G
SciTegic.value.DoubleValue
3.590

@<SCITEGIC>MOL_PROPERTY
G
SciTegic.value.DoubleValue
37.292

@<SCITEGIC>MOL_PROPERTY
E
SciTegic.value.DoubleValue
-0.219

@<SCITEGIC>MOL_PROPERTY
-TS
SciTegic.value.DoubleValue
37.511

@<SCITEGIC>MOL_PROPERTY
U+W
SciTegic.value.DoubleValue
-24.363

@<SCITEGIC>MOL_PROPERTY
U
SciTegic.value.DoubleValue
27.700

@<SCITEGIC>MOL_PROPERTY
W
SciTegic.value.DoubleValue
-52.063

@<SCITEGIC>MOL_PROPERTY
W(PB)
SciTegic.value.DoubleValue
-54.565

@<SCITEGIC>MOL_PROPERTY
W(SA)
SciTegic.value.DoubleValue
2.501

@<SCITEGIC>MOL_PROPERTY
Valence
SciTegic.value.DoubleValue
5.425

@<SCITEGIC>MOL_PROPERTY
Coulomb
SciTegic.value.DoubleValue
21.143

@<SCITEGIC>MOL_PROPERTY
VdW
SciTegic.value.DoubleValue
1.132

@<SCITEGIC>MOL_PROPERTY
VdW6
SciTegic.value.DoubleValue
-9.721

@<SCITEGIC>MOL_PROPERTY
VdW12
SciTegic.value.DoubleValue
10.854

@<SCITEGIC>MOL_PROPERTY
Bond
SciTegic.value.DoubleValue
0.283

@<SCITEGIC>MOL_PROPERTY
Angle
SciTegic.value.DoubleValue
1.775

@<SCITEGIC>MOL_PROPERTY
Pdih
SciTegic.value.DoubleValue
3.367

@<SCITEGIC>MOL_PROPERTY
Idih
SciTegic.value.DoubleValue
0.000

@<SCITEGIC>MOL_PROPERTY
Tether
SciTegic.value.DoubleValue
0.000

@<TRIPOS>MOLECULE
guest-s15_vm2.mol2 : vm2 ligand conformer 95
          29          28           1
SMALL
USER_CHARGES
 
@<TRIPOS>ATOM
       1    C1      18.484264   18.632193   19.931519 C.3        1 MOL1        -0.2426
       2    H1      18.669599   19.346308   19.118556 H          1 MOL1         0.0959
       3    H2      18.932992   17.670352   19.650888 H          1 MOL1         0.0959
       4    H3      17.399068   18.487469   20.011589 H          1 MOL1         0.0959
       5    C2      19.065177   19.146442   21.265664 C.3        1 MOL1        -0.1410
       6    H4      18.825866   18.423600   22.056611 H          1 MOL1         0.0948
       7    H5      18.579538   20.095131   21.533305 H          1 MOL1         0.0948
       8    C3      20.595509   19.346403   21.181663 C.3        1 MOL1        -0.1435
       9    H6      21.080237   18.376298   21.005195 H          1 MOL1         0.0948
      10    H7      20.826638   19.966790   20.304745 H          1 MOL1         0.0948
      11    C4      21.224953   20.017197   22.429981 C.3        1 MOL1        -0.1435
      12    H8      20.832010   21.036282   22.548699 H          1 MOL1         0.0948
      13    H9      22.299428   20.136588   22.233363 H          1 MOL1         0.0948
      14    C5      21.061609   19.217229   23.748880 C.3        1 MOL1        -0.1435
      15    H10     21.002804   18.145004   23.522159 H          1 MOL1         0.0948
      16    H11     21.970613   19.351688   24.351464 H          1 MOL1         0.0948
      17    C6      19.848494   19.677063   24.600146 C.3        1 MOL1        -0.1500
      18    H12     18.913127   19.552063   24.043361 H          1 MOL1         0.0948
      19    H13     19.949634   20.753536   24.791132 H          1 MOL1         0.0948
      20    C7      19.735796   18.950624   25.959619 C.3        1 MOL1         0.1162
      21    H14     20.696350   19.037393   26.476743 H          1 MOL1         0.0910
      22    C8      19.403792   17.456978   25.791388 C.3        1 MOL1        -0.2491
      23    H15     19.277041   16.977169   26.769685 H          1 MOL1         0.0959
      24    H16     18.476240   17.318263   25.222077 H          1 MOL1         0.0959
      25    H17     20.208571   16.924411   25.272016 H          1 MOL1         0.0959
      26    N1      18.716406   19.611870   26.845140 N.4        1 MOL1        -0.5987
      27    H18     18.666158   19.157082   27.761311 H          1 MOL1         0.3605
      28    H19     17.780433   19.572279   26.432745 H          1 MOL1         0.3605
      29    H20     18.940457   20.598038   27.006901 H          1 MOL1         0.3605
@<TRIPOS>BOND
    1     1     2    1
    2     1     3    1
    3     1     4    1
    4     1     5    1
    5     5     6    1
    6     5     7    1
    7     5     8    1
    8     8     9    1
    9     8    10    1
   10     8    11    1
   11    11    12    1
   12    11    13    1
   13    11    14    1
   14    14    15    1
   15    14    16    1
   16    14    17    1
   17    17    18    1
   18    17    19    1
   19    17    20    1
   20    20    21    1
   21    20    22    1
   22    22    23    1
   23    22    24    1
   24    22    25    1
   25    20    26    1
   26    26    27    1
   27    26    28    1
   28    26    29    1
@<TRIPOS>SUBSTRUCTURE
       1 MOL1            1 RESIDUE      1      MOL     
@<SCITEGIC>MOL_PROPERTY
VM2 Rank
SciTegic.value.IntegerValue
95

@<SCITEGIC>MOL_PROPERTY
Conf_Id
SciTegic.value.IntegerValue
1536

@<SCITEGIC>MOL_PROPERTY
Probability
SciTegic.value.DoubleValue
0.02

@<SCITEGIC>MOL_PROPERTY
Sum Probability
SciTegic.value.DoubleValue
99.22

@<SCITEGIC>MOL_PROPERTY
Delta G
SciTegic.value.DoubleValue
3.721

@<SCITEGIC>MOL_PROPERTY
G
SciTegic.value.DoubleValue
37.424

@<SCITEGIC>MOL_PROPERTY
E
SciTegic.value.DoubleValue
-0.308

@<SCITEGIC>MOL_PROPERTY
-TS
SciTegic.value.DoubleValue
37.732

@<SCITEGIC>MOL_PROPERTY
U+W
SciTegic.value.DoubleValue
-24.453

@<SCITEGIC>MOL_PROPERTY
U
SciTegic.value.DoubleValue
28.051

@<SCITEGIC>MOL_PROPERTY
W
SciTegic.value.DoubleValue
-52.504

@<SCITEGIC>MOL_PROPERTY
W(PB)
SciTegic.value.DoubleValue
-54.966

@<SCITEGIC>MOL_PROPERTY
W(SA)
SciTegic.value.DoubleValue
2.462

@<SCITEGIC>MOL_PROPERTY
Valence
SciTegic.value.DoubleValue
6.726

@<SCITEGIC>MOL_PROPERTY
Coulomb
SciTegic.value.DoubleValue
20.160

@<SCITEGIC>MOL_PROPERTY
VdW
SciTegic.value.DoubleValue
1.165

@<SCITEGIC>MOL_PROPERTY
VdW6
SciTegic.value.DoubleValue
-9.906

@<SCITEGIC>MOL_PROPERTY
VdW12
SciTegic.value.DoubleValue
11.071

@<SCITEGIC>MOL_PROPERTY
Bond
SciTegic.value.DoubleValue
0.295

@<SCITEGIC>MOL_PROPERTY
Angle
SciTegic.value.DoubleValue
1.941

@<SCITEGIC>MOL_PROPERTY
Pdih
SciTegic.value.DoubleValue
4.490

@<SCITEGIC>MOL_PROPERTY
Idih
SciTegic.value.DoubleValue
0.000

@<SCITEGIC>MOL_PROPERTY
Tether
SciTegic.value.DoubleValue
0.000

@<TRIPOS>MOLECULE
guest-s15_vm2.mol2 : vm2 ligand conformer 96
          29          28           1
SMALL
USER_CHARGES
 
@<TRIPOS>ATOM
       1    C1      18.347883   19.712108   20.026275 C.3        1 MOL1        -0.2426
       2    H1      17.913360   20.384370   19.275154 H          1 MOL1         0.0959
       3    H2      18.268416   18.685970   19.644483 H          1 MOL1         0.0959
       4    H3      17.734959   19.790642   20.932663 H          1 MOL1         0.0959
       5    C2      19.820956   20.089665   20.301999 C.3        1 MOL1        -0.1410
       6    H4      19.870948   21.108349   20.711231 H          1 MOL1         0.0948
       7    H5      20.364605   20.115113   19.347242 H          1 MOL1         0.0948
       8    C3      20.539868   19.105793   21.256309 C.3        1 MOL1        -0.1435
       9    H6      20.510770   18.094106   20.828624 H          1 MOL1         0.0948
      10    H7      21.600527   19.387142   21.313389 H          1 MOL1         0.0948
      11    C4      19.944477   19.087043   22.684408 C.3        1 MOL1        -0.1435
      12    H8      18.908144   18.726094   22.649624 H          1 MOL1         0.0948
      13    H9      19.927000   20.114269   23.067960 H          1 MOL1         0.0948
      14    C5      20.768997   18.185239   23.633532 C.3        1 MOL1        -0.1435
      15    H10     20.930505   17.214341   23.144901 H          1 MOL1         0.0948
      16    H11     21.766607   18.622178   23.779488 H          1 MOL1         0.0948
      17    C6      20.114120   17.920560   25.014957 C.3        1 MOL1        -0.1500
      18    H12     20.745813   17.188319   25.535434 H          1 MOL1         0.0948
      19    H13     19.138268   17.434384   24.884628 H          1 MOL1         0.0948
      20    C7      19.964884   19.170906   25.913798 C.3        1 MOL1         0.1162
      21    H14     20.862498   19.786621   25.801004 H          1 MOL1         0.0910
      22    C8      19.846797   18.757860   27.390198 C.3        1 MOL1        -0.2491
      23    H15     18.967395   18.122700   27.555309 H          1 MOL1         0.0959
      24    H16     20.735878   18.201859   27.712984 H          1 MOL1         0.0959
      25    H17     19.757005   19.640912   28.034905 H          1 MOL1         0.0959
      26    N1      18.788018   20.026827   25.532523 N.4        1 MOL1        -0.5987
      27    H18     18.736248   20.870104   26.111333 H          1 MOL1         0.3605
      28    H19     17.906844   19.519811   25.651024 H          1 MOL1         0.3605
      29    H20     18.843272   20.324655   24.555883 H          1 MOL1         0.3605
@<TRIPOS>BOND
    1     1     2    1
    2     1     3    1
    3     1     4    1
    4     1     5    1
    5     5     6    1
    6     5     7    1
    7     5     8    1
    8     8     9    1
    9     8    10    1
   10     8    11    1
   11    11    12    1
   12    11    13    1
   13    11    14    1
   14    14    15    1
   15    14    16    1
   16    14    17    1
   17    17    18    1
   18    17    19    1
   19    17    20    1
   20    20    21    1
   21    20    22    1
   22    22    23    1
   23    22    24    1
   24    22    25    1
   25    20    26    1
   26    26    27    1
   27    26    28    1
   28    26    29    1
@<TRIPOS>SUBSTRUCTURE
       1 MOL1            1 RESIDUE      1      MOL     
@<SCITEGIC>MOL_PROPERTY
VM2 Rank
SciTegic.value.IntegerValue
96

@<SCITEGIC>MOL_PROPERTY
Conf_Id
SciTegic.value.IntegerValue
199

@<SCITEGIC>MOL_PROPERTY
Probability
SciTegic.value.DoubleValue
0.02

@<SCITEGIC>MOL_PROPERTY
Sum Probability
SciTegic.value.DoubleValue
99.24

@<SCITEGIC>MOL_PROPERTY
Delta G
SciTegic.value.DoubleValue
3.730

@<SCITEGIC>MOL_PROPERTY
G
SciTegic.value.DoubleValue
37.432

@<SCITEGIC>MOL_PROPERTY
E
SciTegic.value.DoubleValue
-0.090

@<SCITEGIC>MOL_PROPERTY
-TS
SciTegic.value.DoubleValue
37.522

@<SCITEGIC>MOL_PROPERTY
U+W
SciTegic.value.DoubleValue
-24.234

@<SCITEGIC>MOL_PROPERTY
U
SciTegic.value.DoubleValue
27.821

@<SCITEGIC>MOL_PROPERTY
W
SciTegic.value.DoubleValue
-52.056

@<SCITEGIC>MOL_PROPERTY
W(PB)
SciTegic.value.DoubleValue
-54.572

@<SCITEGIC>MOL_PROPERTY
W(SA)
SciTegic.value.DoubleValue
2.516

@<SCITEGIC>MOL_PROPERTY
Valence
SciTegic.value.DoubleValue
5.450

@<SCITEGIC>MOL_PROPERTY
Coulomb
SciTegic.value.DoubleValue
21.220

@<SCITEGIC>MOL_PROPERTY
VdW
SciTegic.value.DoubleValue
1.151

@<SCITEGIC>MOL_PROPERTY
VdW6
SciTegic.value.DoubleValue
-9.707

@<SCITEGIC>MOL_PROPERTY
VdW12
SciTegic.value.DoubleValue
10.858

@<SCITEGIC>MOL_PROPERTY
Bond
SciTegic.value.DoubleValue
0.277

@<SCITEGIC>MOL_PROPERTY
Angle
SciTegic.value.DoubleValue
1.826

@<SCITEGIC>MOL_PROPERTY
Pdih
SciTegic.value.DoubleValue
3.348

@<SCITEGIC>MOL_PROPERTY
Idih
SciTegic.value.DoubleValue
0.000

@<SCITEGIC>MOL_PROPERTY
Tether
SciTegic.value.DoubleValue
0.000

@<TRIPOS>MOLECULE
guest-s15_vm2.mol2 : vm2 ligand conformer 97
          29          28           1
SMALL
USER_CHARGES
 
@<TRIPOS>ATOM
       1    C1      19.676061   19.532696   18.998129 C.3        1 MOL1        -0.2426
       2    H1      18.888380   20.265821   18.780602 H          1 MOL1         0.0959
       3    H2      20.648093   20.025470   18.865532 H          1 MOL1         0.0959
       4    H3      19.601740   18.728159   18.255000 H          1 MOL1         0.0959
       5    C2      19.530956   18.969142   20.427632 C.3        1 MOL1        -0.1410
       6    H4      20.307949   18.211078   20.590348 H          1 MOL1         0.0948
       7    H5      18.562593   18.457925   20.520272 H          1 MOL1         0.0948
       8    C3      19.636086   20.086249   21.493113 C.3        1 MOL1        -0.1435
       9    H6      20.623924   20.563952   21.435893 H          1 MOL1         0.0948
      10    H7      18.902015   20.868938   21.256594 H          1 MOL1         0.0948
      11    C4      19.377195   19.595978   22.939225 C.3        1 MOL1        -0.1435
      12    H8      18.408114   19.080026   22.983424 H          1 MOL1         0.0948
      13    H9      19.296968   20.484610   23.576478 H          1 MOL1         0.0948
      14    C5      20.495265   18.674559   23.489090 C.3        1 MOL1        -0.1435
      15    H10     20.667640   17.850540   22.785704 H          1 MOL1         0.0948
      16    H11     21.438852   19.235368   23.537918 H          1 MOL1         0.0948
      17    C6      20.197598   18.045525   24.875936 C.3        1 MOL1        -0.1500
      18    H12     21.016208   17.346392   25.093273 H          1 MOL1         0.0948
      19    H13     19.287597   17.433089   24.826418 H          1 MOL1         0.0948
      20    C7      20.089726   19.057641   26.041222 C.3        1 MOL1         0.1162
      21    H14     20.836089   19.843004   25.887318 H          1 MOL1         0.0910
      22    C8      20.388370   18.365812   27.381618 C.3        1 MOL1        -0.2491
      23    H15     20.327824   19.081783   28.210602 H          1 MOL1         0.0959
      24    H16     19.675450   17.554870   27.576977 H          1 MOL1         0.0959
      25    H17     21.399794   17.940590   27.385335 H          1 MOL1         0.0959
      26    N1      18.744743   19.728398   26.108036 N.4        1 MOL1        -0.5987
      27    H18     18.711864   20.426076   26.856999 H          1 MOL1         0.3605
      28    H19     18.000411   19.049723   26.289513 H          1 MOL1         0.3605
      29    H20     18.519627   20.204731   25.231735 H          1 MOL1         0.3605
@<TRIPOS>BOND
    1     1     2    1
    2     1     3    1
    3     1     4    1
    4     1     5    1
    5     5     6    1
    6     5     7    1
    7     5     8    1
    8     8     9    1
    9     8    10    1
   10     8    11    1
   11    11    12    1
   12    11    13    1
   13    11    14    1
   14    14    15    1
   15    14    16    1
   16    14    17    1
   17    17    18    1
   18    17    19    1
   19    17    20    1
   20    20    21    1
   21    20    22    1
   22    22    23    1
   23    22    24    1
   24    22    25    1
   25    20    26    1
   26    26    27    1
   27    26    28    1
   28    26    29    1
@<TRIPOS>SUBSTRUCTURE
       1 MOL1            1 RESIDUE      1      MOL     
@<SCITEGIC>MOL_PROPERTY
VM2 Rank
SciTegic.value.IntegerValue
97

@<SCITEGIC>MOL_PROPERTY
Conf_Id
SciTegic.value.IntegerValue
1589

@<SCITEGIC>MOL_PROPERTY
Probability
SciTegic.value.DoubleValue
0.02

@<SCITEGIC>MOL_PROPERTY
Sum Probability
SciTegic.value.DoubleValue
99.26

@<SCITEGIC>MOL_PROPERTY
Delta G
SciTegic.value.DoubleValue
3.736

@<SCITEGIC>MOL_PROPERTY
G
SciTegic.value.DoubleValue
37.438

@<SCITEGIC>MOL_PROPERTY
E
SciTegic.value.DoubleValue
0.033

@<SCITEGIC>MOL_PROPERTY
-TS
SciTegic.value.DoubleValue
37.405

@<SCITEGIC>MOL_PROPERTY
U+W
SciTegic.value.DoubleValue
-24.111

@<SCITEGIC>MOL_PROPERTY
U
SciTegic.value.DoubleValue
28.001

@<SCITEGIC>MOL_PROPERTY
W
SciTegic.value.DoubleValue
-52.113

@<SCITEGIC>MOL_PROPERTY
W(PB)
SciTegic.value.DoubleValue
-54.582

@<SCITEGIC>MOL_PROPERTY
W(SA)
SciTegic.value.DoubleValue
2.469

@<SCITEGIC>MOL_PROPERTY
Valence
SciTegic.value.DoubleValue
5.678

@<SCITEGIC>MOL_PROPERTY
Coulomb
SciTegic.value.DoubleValue
21.086

@<SCITEGIC>MOL_PROPERTY
VdW
SciTegic.value.DoubleValue
1.237

@<SCITEGIC>MOL_PROPERTY
VdW6
SciTegic.value.DoubleValue
-9.584

@<SCITEGIC>MOL_PROPERTY
VdW12
SciTegic.value.DoubleValue
10.821

@<SCITEGIC>MOL_PROPERTY
Bond
SciTegic.value.DoubleValue
0.291

@<SCITEGIC>MOL_PROPERTY
Angle
SciTegic.value.DoubleValue
1.936

@<SCITEGIC>MOL_PROPERTY
Pdih
SciTegic.value.DoubleValue
3.451

@<SCITEGIC>MOL_PROPERTY
Idih
SciTegic.value.DoubleValue
0.000

@<SCITEGIC>MOL_PROPERTY
Tether
SciTegic.value.DoubleValue
0.000

@<TRIPOS>MOLECULE
guest-s15_vm2.mol2 : vm2 ligand conformer 98
          29          28           1
SMALL
USER_CHARGES
 
@<TRIPOS>ATOM
       1    C1      20.906921   20.369796   20.524858 C.3        1 MOL1        -0.2426
       2    H1      21.710704   19.794400   20.047482 H          1 MOL1         0.0959
       3    H2      20.895215   21.367579   20.067495 H          1 MOL1         0.0959
       4    H3      21.163191   20.492952   21.582761 H          1 MOL1         0.0959
       5    C2      19.540343   19.671487   20.333365 C.3        1 MOL1        -0.1410
       6    H4      19.341302   19.608509   19.254345 H          1 MOL1         0.0948
       7    H5      18.733756   20.288051   20.753868 H          1 MOL1         0.0948
       8    C3      19.490969   18.240608   20.928338 C.3        1 MOL1        -0.1435
       9    H6      18.860417   17.620966   20.275797 H          1 MOL1         0.0948
      10    H7      20.488734   17.781653   20.897411 H          1 MOL1         0.0948
      11    C4      18.906840   18.150615   22.361841 C.3        1 MOL1        -0.1435
      12    H8      18.859305   17.090598   22.647206 H          1 MOL1         0.0948
      13    H9      17.869424   18.512505   22.355748 H          1 MOL1         0.0948
      14    C5      19.715244   18.923023   23.429776 C.3        1 MOL1        -0.1435
      15    H10     20.771902   18.634505   23.357195 H          1 MOL1         0.0948
      16    H11     19.654486   20.000489   23.229043 H          1 MOL1         0.0948
      17    C6      19.185913   18.648142   24.858672 C.3        1 MOL1        -0.1500
      18    H12     19.307477   17.583923   25.100655 H          1 MOL1         0.0948
      19    H13     18.106762   18.850319   24.876282 H          1 MOL1         0.0948
      20    C7      19.862730   19.509549   25.949183 C.3        1 MOL1         0.1162
      21    H14     19.759719   20.562169   25.668112 H          1 MOL1         0.0910
      22    C8      21.361041   19.188866   26.095676 C.3        1 MOL1        -0.2491
      23    H15     21.803298   19.774019   26.911368 H          1 MOL1         0.0959
      24    H16     21.519645   18.125637   26.314992 H          1 MOL1         0.0959
      25    H17     21.913493   19.438024   25.182357 H          1 MOL1         0.0959
      26    N1      19.165999   19.353915   27.272290 N.4        1 MOL1        -0.5987
      27    H18     19.218353   18.389499   27.611290 H          1 MOL1         0.3605
      28    H19     18.175011   19.604445   27.208491 H          1 MOL1         0.3605
      29    H20     19.585978   19.952940   27.988877 H          1 MOL1         0.3605
@<TRIPOS>BOND
    1     1     2    1
    2     1     3    1
    3     1     4    1
    4     1     5    1
    5     5     6    1
    6     5     7    1
    7     5     8    1
    8     8     9    1
    9     8    10    1
   10     8    11    1
   11    11    12    1
   12    11    13    1
   13    11    14    1
   14    14    15    1
   15    14    16    1
   16    14    17    1
   17    17    18    1
   18    17    19    1
   19    17    20    1
   20    20    21    1
   21    20    22    1
   22    22    23    1
   23    22    24    1
   24    22    25    1
   25    20    26    1
   26    26    27    1
   27    26    28    1
   28    26    29    1
@<TRIPOS>SUBSTRUCTURE
       1 MOL1            1 RESIDUE      1      MOL     
@<SCITEGIC>MOL_PROPERTY
VM2 Rank
SciTegic.value.IntegerValue
98

@<SCITEGIC>MOL_PROPERTY
Conf_Id
SciTegic.value.IntegerValue
1337

@<SCITEGIC>MOL_PROPERTY
Probability
SciTegic.value.DoubleValue
0.02

@<SCITEGIC>MOL_PROPERTY
Sum Probability
SciTegic.value.DoubleValue
99.28

@<SCITEGIC>MOL_PROPERTY
Delta G
SciTegic.value.DoubleValue
3.748

@<SCITEGIC>MOL_PROPERTY
G
SciTegic.value.DoubleValue
37.450

@<SCITEGIC>MOL_PROPERTY
E
SciTegic.value.DoubleValue
-0.302

@<SCITEGIC>MOL_PROPERTY
-TS
SciTegic.value.DoubleValue
37.752

@<SCITEGIC>MOL_PROPERTY
U+W
SciTegic.value.DoubleValue
-24.447

@<SCITEGIC>MOL_PROPERTY
U
SciTegic.value.DoubleValue
27.666

@<SCITEGIC>MOL_PROPERTY
W
SciTegic.value.DoubleValue
-52.113

@<SCITEGIC>MOL_PROPERTY
W(PB)
SciTegic.value.DoubleValue
-54.554

@<SCITEGIC>MOL_PROPERTY
W(SA)
SciTegic.value.DoubleValue
2.441

@<SCITEGIC>MOL_PROPERTY
Valence
SciTegic.value.DoubleValue
6.690

@<SCITEGIC>MOL_PROPERTY
Coulomb
SciTegic.value.DoubleValue
19.707

@<SCITEGIC>MOL_PROPERTY
VdW
SciTegic.value.DoubleValue
1.268

@<SCITEGIC>MOL_PROPERTY
VdW6
SciTegic.value.DoubleValue
-9.727

@<SCITEGIC>MOL_PROPERTY
VdW12
SciTegic.value.DoubleValue
10.995

@<SCITEGIC>MOL_PROPERTY
Bond
SciTegic.value.DoubleValue
0.283

@<SCITEGIC>MOL_PROPERTY
Angle
SciTegic.value.DoubleValue
1.951

@<SCITEGIC>MOL_PROPERTY
Pdih
SciTegic.value.DoubleValue
4.457

@<SCITEGIC>MOL_PROPERTY
Idih
SciTegic.value.DoubleValue
0.000

@<SCITEGIC>MOL_PROPERTY
Tether
SciTegic.value.DoubleValue
0.000

@<TRIPOS>MOLECULE
guest-s15_vm2.mol2 : vm2 ligand conformer 99
          29          28           1
SMALL
USER_CHARGES
 
@<TRIPOS>ATOM
       1    C1      20.042367   20.726172   20.611528 C.3        1 MOL1        -0.2426
       2    H1      21.082591   20.772446   20.958872 H          1 MOL1         0.0959
       3    H2      19.909114   21.500569   19.845101 H          1 MOL1         0.0959
       4    H3      19.381274   20.978329   21.449747 H          1 MOL1         0.0959
       5    C2      19.708880   19.333304   20.034430 C.3        1 MOL1        -0.1410
       6    H4      20.269890   19.196137   19.099457 H          1 MOL1         0.0948
       7    H5      18.645581   19.298231   19.759018 H          1 MOL1         0.0948
       8    C3      20.039092   18.152680   20.982937 C.3        1 MOL1        -0.1435
       9    H6      19.807276   17.222859   20.445297 H          1 MOL1         0.0948
      10    H7      21.119201   18.118287   21.180983 H          1 MOL1         0.0948
      11    C4      19.246127   18.149683   22.315886 C.3        1 MOL1        -0.1435
      12    H8      19.031964   17.107398   22.590094 H          1 MOL1         0.0948
      13    H9      18.269809   18.632926   22.173145 H          1 MOL1         0.0948
      14    C5      20.011207   18.808784   23.489776 C.3        1 MOL1        -0.1435
      15    H10     20.958815   18.274909   23.638324 H          1 MOL1         0.0948
      16    H11     20.269296   19.845643   23.244191 H          1 MOL1         0.0948
      17    C6      19.181728   18.785516   24.797065 C.3        1 MOL1        -0.1500
      18    H12     18.985637   17.746423   25.093254 H          1 MOL1         0.0948
      19    H13     18.203340   19.242312   24.597609 H          1 MOL1         0.0948
      20    C7      19.844865   19.544306   25.969187 C.3        1 MOL1         0.1162
      21    H14     20.066011   20.563333   25.637071 H          1 MOL1         0.0910
      22    C8      21.159459   18.882519   26.419842 C.3        1 MOL1        -0.2491
      23    H15     21.914247   18.913029   25.625645 H          1 MOL1         0.0959
      24    H16     21.579509   19.408497   27.286014 H          1 MOL1         0.0959
      25    H17     20.999487   17.834688   26.702987 H          1 MOL1         0.0959
      26    N1      18.902273   19.673037   27.133349 N.4        1 MOL1        -0.5987
      27    H18     18.036498   20.150733   26.866659 H          1 MOL1         0.3605
      28    H19     19.322947   20.209343   27.897628 H          1 MOL1         0.3605
      29    H20     18.644769   18.756361   27.509069 H          1 MOL1         0.3605
@<TRIPOS>BOND
    1     1     2    1
    2     1     3    1
    3     1     4    1
    4     1     5    1
    5     5     6    1
    6     5     7    1
    7     5     8    1
    8     8     9    1
    9     8    10    1
   10     8    11    1
   11    11    12    1
   12    11    13    1
   13    11    14    1
   14    14    15    1
   15    14    16    1
   16    14    17    1
   17    17    18    1
   18    17    19    1
   19    17    20    1
   20    20    21    1
   21    20    22    1
   22    22    23    1
   23    22    24    1
   24    22    25    1
   25    20    26    1
   26    26    27    1
   27    26    28    1
   28    26    29    1
@<TRIPOS>SUBSTRUCTURE
       1 MOL1            1 RESIDUE      1      MOL     
@<SCITEGIC>MOL_PROPERTY
VM2 Rank
SciTegic.value.IntegerValue
99

@<SCITEGIC>MOL_PROPERTY
Conf_Id
SciTegic.value.IntegerValue
1010

@<SCITEGIC>MOL_PROPERTY
Probability
SciTegic.value.DoubleValue
0.02

@<SCITEGIC>MOL_PROPERTY
Sum Probability
SciTegic.value.DoubleValue
99.30

@<SCITEGIC>MOL_PROPERTY
Delta G
SciTegic.value.DoubleValue
3.750

@<SCITEGIC>MOL_PROPERTY
G
SciTegic.value.DoubleValue
37.452

@<SCITEGIC>MOL_PROPERTY
E
SciTegic.value.DoubleValue
-0.297

@<SCITEGIC>MOL_PROPERTY
-TS
SciTegic.value.DoubleValue
37.750

@<SCITEGIC>MOL_PROPERTY
U+W
SciTegic.value.DoubleValue
-24.442

@<SCITEGIC>MOL_PROPERTY
U
SciTegic.value.DoubleValue
27.705

@<SCITEGIC>MOL_PROPERTY
W
SciTegic.value.DoubleValue
-52.147

@<SCITEGIC>MOL_PROPERTY
W(PB)
SciTegic.value.DoubleValue
-54.638

@<SCITEGIC>MOL_PROPERTY
W(SA)
SciTegic.value.DoubleValue
2.492

@<SCITEGIC>MOL_PROPERTY
Valence
SciTegic.value.DoubleValue
6.675

@<SCITEGIC>MOL_PROPERTY
Coulomb
SciTegic.value.DoubleValue
19.752

@<SCITEGIC>MOL_PROPERTY
VdW
SciTegic.value.DoubleValue
1.278

@<SCITEGIC>MOL_PROPERTY
VdW6
SciTegic.value.DoubleValue
-9.693

@<SCITEGIC>MOL_PROPERTY
VdW12
SciTegic.value.DoubleValue
10.971

@<SCITEGIC>MOL_PROPERTY
Bond
SciTegic.value.DoubleValue
0.285

@<SCITEGIC>MOL_PROPERTY
Angle
SciTegic.value.DoubleValue
1.922

@<SCITEGIC>MOL_PROPERTY
Pdih
SciTegic.value.DoubleValue
4.468

@<SCITEGIC>MOL_PROPERTY
Idih
SciTegic.value.DoubleValue
0.000

@<SCITEGIC>MOL_PROPERTY
Tether
SciTegic.value.DoubleValue
0.000

@<TRIPOS>MOLECULE
guest-s15_vm2.mol2 : vm2 ligand conformer 100
          29          28           1
SMALL
USER_CHARGES
 
@<TRIPOS>ATOM
       1    C1      20.750798   18.042600   20.607536 C.3        1 MOL1        -0.2426
       2    H1      21.682825   18.511404   20.948694 H          1 MOL1         0.0959
       3    H2      20.315622   17.479407   21.442265 H          1 MOL1         0.0959
       4    H3      21.006254   17.319288   19.822411 H          1 MOL1         0.0959
       5    C2      19.761410   19.097945   20.067197 C.3        1 MOL1        -0.1410
       6    H4      18.817222   18.606040   19.794742 H          1 MOL1         0.0948
       7    H5      20.166667   19.515727   19.135025 H          1 MOL1         0.0948
       8    C3      19.475093   20.265906   21.045293 C.3        1 MOL1        -0.1435
       9    H6      20.398121   20.828216   21.242552 H          1 MOL1         0.0948
      10    H7      18.804258   20.968978   20.532428 H          1 MOL1         0.0948
      11    C4      18.804971   19.845118   22.379185 C.3        1 MOL1        -0.1435
      12    H8      18.201316   18.939700   22.227619 H          1 MOL1         0.0948
      13    H9      18.100345   20.633669   22.677612 H          1 MOL1         0.0948
      14    C5      19.813553   19.635203   23.535101 C.3        1 MOL1        -0.1435
      15    H10     20.560607   18.888332   23.246101 H          1 MOL1         0.0948
      16    H11     20.358464   20.571910   23.716500 H          1 MOL1         0.0948
      17    C6      19.104839   19.192736   24.838725 C.3        1 MOL1        -0.1500
      18    H12     18.608402   18.226143   24.680122 H          1 MOL1         0.0948
      19    H13     18.311303   19.916210   25.068022 H          1 MOL1         0.0948
      20    C7      20.048217   19.098260   26.059611 C.3        1 MOL1         0.1162
      21    H14     20.563709   20.057241   26.170278 H          1 MOL1         0.0910
      22    C8      21.105919   17.992437   25.892322 C.3        1 MOL1        -0.2491
      23    H15     21.724269   17.909892   26.794642 H          1 MOL1         0.0959
      24    H16     20.635819   17.017663   25.711944 H          1 MOL1         0.0959
      25    H17     21.781135   18.208792   25.056494 H          1 MOL1         0.0959
      26    N1      19.271200   18.885796   27.329030 N.4        1 MOL1        -0.5987
      27    H18     19.888486   18.862043   28.145794 H          1 MOL1         0.3605
      28    H19     18.756814   18.001063   27.309018 H          1 MOL1         0.3605
      29    H20     18.589919   19.634625   27.483971 H          1 MOL1         0.3605
@<TRIPOS>BOND
    1     1     2    1
    2     1     3    1
    3     1     4    1
    4     1     5    1
    5     5     6    1
    6     5     7    1
    7     5     8    1
    8     8     9    1
    9     8    10    1
   10     8    11    1
   11    11    12    1
   12    11    13    1
   13    11    14    1
   14    14    15    1
   15    14    16    1
   16    14    17    1
   17    17    18    1
   18    17    19    1
   19    17    20    1
   20    20    21    1
   21    20    22    1
   22    22    23    1
   23    22    24    1
   24    22    25    1
   25    20    26    1
   26    26    27    1
   27    26    28    1
   28    26    29    1
@<TRIPOS>SUBSTRUCTURE
       1 MOL1            1 RESIDUE      1      MOL     
@<SCITEGIC>MOL_PROPERTY
VM2 Rank
SciTegic.value.IntegerValue
100

@<SCITEGIC>MOL_PROPERTY
Conf_Id
SciTegic.value.IntegerValue
1531

@<SCITEGIC>MOL_PROPERTY
Probability
SciTegic.value.DoubleValue
0.02

@<SCITEGIC>MOL_PROPERTY
Sum Probability
SciTegic.value.DoubleValue
99.31

@<SCITEGIC>MOL_PROPERTY
Delta G
SciTegic.value.DoubleValue
3.754

@<SCITEGIC>MOL_PROPERTY
G
SciTegic.value.DoubleValue
37.456

@<SCITEGIC>MOL_PROPERTY
E
SciTegic.value.DoubleValue
-0.303

@<SCITEGIC>MOL_PROPERTY
-TS
SciTegic.value.DoubleValue
37.759

@<SCITEGIC>MOL_PROPERTY
U+W
SciTegic.value.DoubleValue
-24.448

@<SCITEGIC>MOL_PROPERTY
U
SciTegic.value.DoubleValue
27.633

@<SCITEGIC>MOL_PROPERTY
W
SciTegic.value.DoubleValue
-52.080

@<SCITEGIC>MOL_PROPERTY
W(PB)
SciTegic.value.DoubleValue
-54.518

@<SCITEGIC>MOL_PROPERTY
W(SA)
SciTegic.value.DoubleValue
2.438

@<SCITEGIC>MOL_PROPERTY
Valence
SciTegic.value.DoubleValue
6.676

@<SCITEGIC>MOL_PROPERTY
Coulomb
SciTegic.value.DoubleValue
19.710

@<SCITEGIC>MOL_PROPERTY
VdW
SciTegic.value.DoubleValue
1.246

@<SCITEGIC>MOL_PROPERTY
VdW6
SciTegic.value.DoubleValue
-9.759

@<SCITEGIC>MOL_PROPERTY
VdW12
SciTegic.value.DoubleValue
11.005

@<SCITEGIC>MOL_PROPERTY
Bond
SciTegic.value.DoubleValue
0.286

@<SCITEGIC>MOL_PROPERTY
Angle
SciTegic.value.DoubleValue
1.893

@<SCITEGIC>MOL_PROPERTY
Pdih
SciTegic.value.DoubleValue
4.497

@<SCITEGIC>MOL_PROPERTY
Idih
SciTegic.value.DoubleValue
0.000

@<SCITEGIC>MOL_PROPERTY
Tether
SciTegic.value.DoubleValue
0.000

@<TRIPOS>MOLECULE
guest-s15_vm2.mol2 : vm2 ligand conformer 101
          29          28           1
SMALL
USER_CHARGES
 
@<TRIPOS>ATOM
       1    C1      18.898356   17.958129   20.718408 C.3        1 MOL1        -0.2426
       2    H1      18.674563   17.248224   19.911684 H          1 MOL1         0.0959
       3    H2      19.492731   17.423243   21.469369 H          1 MOL1         0.0959
       4    H3      17.946499   18.259871   21.174209 H          1 MOL1         0.0959
       5    C2      19.663240   19.179982   20.164668 C.3        1 MOL1        -0.1410
       6    H4      19.110493   19.580631   19.303471 H          1 MOL1         0.0948
       7    H5      20.637751   18.853653   19.775408 H          1 MOL1         0.0948
       8    C3      19.870319   20.323477   21.190499 C.3        1 MOL1        -0.1435
       9    H6      20.376579   21.147311   20.668632 H          1 MOL1         0.0948
      10    H7      18.898814   20.726849   21.507532 H          1 MOL1         0.0948
      11    C4      20.723749   19.938689   22.427046 C.3        1 MOL1        -0.1435
      12    H8      21.329646   20.808811   22.715381 H          1 MOL1         0.0948
      13    H9      21.437043   19.146957   22.159691 H          1 MOL1         0.0948
      14    C5      19.876821   19.513197   23.651300 C.3        1 MOL1        -0.1435
      15    H10     19.217842   20.344025   23.935512 H          1 MOL1         0.0948
      16    H11     19.226472   18.674441   23.380991 H          1 MOL1         0.0948
      17    C6      20.773039   19.116296   24.853087 C.3        1 MOL1        -0.1500
      18    H12     21.444141   19.951202   25.093862 H          1 MOL1         0.0948
      19    H13     21.423062   18.281203   24.560104 H          1 MOL1         0.0948
      20    C7      20.004990   18.720804   26.136368 C.3        1 MOL1         0.1162
      21    H14     20.750813   18.498047   26.905714 H          1 MOL1         0.0910
      22    C8      19.153090   17.455403   25.934739 C.3        1 MOL1        -0.2491
      23    H15     19.761606   16.635497   25.533437 H          1 MOL1         0.0959
      24    H16     18.732729   17.120208   26.890844 H          1 MOL1         0.0959
      25    H17     18.318272   17.633157   25.246503 H          1 MOL1         0.0959
      26    N1      19.172395   19.850023   26.677884 N.4        1 MOL1        -0.5987
      27    H18     19.740811   20.682748   26.857278 H          1 MOL1         0.3605
      28    H19     18.720312   19.591951   27.559734 H          1 MOL1         0.3605
      29    H20     18.434862   20.115516   26.020572 H          1 MOL1         0.3605
@<TRIPOS>BOND
    1     1     2    1
    2     1     3    1
    3     1     4    1
    4     1     5    1
    5     5     6    1
    6     5     7    1
    7     5     8    1
    8     8     9    1
    9     8    10    1
   10     8    11    1
   11    11    12    1
   12    11    13    1
   13    11    14    1
   14    14    15    1
   15    14    16    1
   16    14    17    1
   17    17    18    1
   18    17    19    1
   19    17    20    1
   20    20    21    1
   21    20    22    1
   22    22    23    1
   23    22    24    1
   24    22    25    1
   25    20    26    1
   26    26    27    1
   27    26    28    1
   28    26    29    1
@<TRIPOS>SUBSTRUCTURE
       1 MOL1            1 RESIDUE      1      MOL     
@<SCITEGIC>MOL_PROPERTY
VM2 Rank
SciTegic.value.IntegerValue
101

@<SCITEGIC>MOL_PROPERTY
Conf_Id
SciTegic.value.IntegerValue
606

@<SCITEGIC>MOL_PROPERTY
Probability
SciTegic.value.DoubleValue
0.02

@<SCITEGIC>MOL_PROPERTY
Sum Probability
SciTegic.value.DoubleValue
99.33

@<SCITEGIC>MOL_PROPERTY
Delta G
SciTegic.value.DoubleValue
3.771

@<SCITEGIC>MOL_PROPERTY
G
SciTegic.value.DoubleValue
37.473

@<SCITEGIC>MOL_PROPERTY
E
SciTegic.value.DoubleValue
-0.420

@<SCITEGIC>MOL_PROPERTY
-TS
SciTegic.value.DoubleValue
37.893

@<SCITEGIC>MOL_PROPERTY
U+W
SciTegic.value.DoubleValue
-24.565

@<SCITEGIC>MOL_PROPERTY
U
SciTegic.value.DoubleValue
27.852

@<SCITEGIC>MOL_PROPERTY
W
SciTegic.value.DoubleValue
-52.416

@<SCITEGIC>MOL_PROPERTY
W(PB)
SciTegic.value.DoubleValue
-54.827

@<SCITEGIC>MOL_PROPERTY
W(SA)
SciTegic.value.DoubleValue
2.412

@<SCITEGIC>MOL_PROPERTY
Valence
SciTegic.value.DoubleValue
6.641

@<SCITEGIC>MOL_PROPERTY
Coulomb
SciTegic.value.DoubleValue
19.992

@<SCITEGIC>MOL_PROPERTY
VdW
SciTegic.value.DoubleValue
1.219

@<SCITEGIC>MOL_PROPERTY
VdW6
SciTegic.value.DoubleValue
-10.253

@<SCITEGIC>MOL_PROPERTY
VdW12
SciTegic.value.DoubleValue
11.472

@<SCITEGIC>MOL_PROPERTY
Bond
SciTegic.value.DoubleValue
0.310

@<SCITEGIC>MOL_PROPERTY
Angle
SciTegic.value.DoubleValue
1.947

@<SCITEGIC>MOL_PROPERTY
Pdih
SciTegic.value.DoubleValue
4.385

@<SCITEGIC>MOL_PROPERTY
Idih
SciTegic.value.DoubleValue
0.000

@<SCITEGIC>MOL_PROPERTY
Tether
SciTegic.value.DoubleValue
0.000

@<TRIPOS>MOLECULE
guest-s15_vm2.mol2 : vm2 ligand conformer 102
          29          28           1
SMALL
USER_CHARGES
 
@<TRIPOS>ATOM
       1    C1      18.255298   19.423234   20.009574 C.3        1 MOL1        -0.2426
       2    H1      18.698917   19.087799   19.063044 H          1 MOL1         0.0959
       3    H2      17.633741   18.608633   20.403654 H          1 MOL1         0.0959
       4    H3      17.596943   20.273849   19.790382 H          1 MOL1         0.0959
       5    C2      19.347635   19.826395   21.022430 C.3        1 MOL1        -0.1410
       6    H4      18.869068   20.196575   21.936759 H          1 MOL1         0.0948
       7    H5      19.929100   20.664226   20.613005 H          1 MOL1         0.0948
       8    C3      20.295119   18.644188   21.338918 C.3        1 MOL1        -0.1435
       9    H6      19.721393   17.778869   21.698291 H          1 MOL1         0.0948
      10    H7      20.767044   18.325336   20.399220 H          1 MOL1         0.0948
      11    C4      21.414254   19.000297   22.352090 C.3        1 MOL1        -0.1435
      12    H8      21.677424   20.064036   22.272426 H          1 MOL1         0.0948
      13    H9      22.321091   18.449753   22.065784 H          1 MOL1         0.0948
      14    C5      21.094964   18.636394   23.825119 C.3        1 MOL1        -0.1435
      15    H10     20.932635   17.552712   23.895971 H          1 MOL1         0.0948
      16    H11     21.982392   18.855833   24.434817 H          1 MOL1         0.0948
      17    C6      19.879249   19.391583   24.417651 C.3        1 MOL1        -0.1500
      18    H12     18.956772   19.051594   23.930352 H          1 MOL1         0.0948
      19    H13     19.985762   20.460547   24.191213 H          1 MOL1         0.0948
      20    C7      19.734572   19.226561   25.947462 C.3        1 MOL1         0.1162
      21    H14     20.674717   19.533245   26.416159 H          1 MOL1         0.0910
      22    C8      19.443662   17.768941   26.347219 C.3        1 MOL1        -0.2491
      23    H15     19.298933   17.687256   27.431522 H          1 MOL1         0.0959
      24    H16     18.537662   17.395433   25.853893 H          1 MOL1         0.0959
      25    H17     20.277264   17.108862   26.080740 H          1 MOL1         0.0959
      26    N1      18.671248   20.138408   26.493537 N.4        1 MOL1        -0.5987
      27    H18     18.599637   20.060839   27.512154 H          1 MOL1         0.3605
      28    H19     17.751092   19.915048   26.104818 H          1 MOL1         0.3605
      29    H20     18.867881   21.119693   26.276131 H          1 MOL1         0.3605
@<TRIPOS>BOND
    1     1     2    1
    2     1     3    1
    3     1     4    1
    4     1     5    1
    5     5     6    1
    6     5     7    1
    7     5     8    1
    8     8     9    1
    9     8    10    1
   10     8    11    1
   11    11    12    1
   12    11    13    1
   13    11    14    1
   14    14    15    1
   15    14    16    1
   16    14    17    1
   17    17    18    1
   18    17    19    1
   19    17    20    1
   20    20    21    1
   21    20    22    1
   22    22    23    1
   23    22    24    1
   24    22    25    1
   25    20    26    1
   26    26    27    1
   27    26    28    1
   28    26    29    1
@<TRIPOS>SUBSTRUCTURE
       1 MOL1            1 RESIDUE      1      MOL     
@<SCITEGIC>MOL_PROPERTY
VM2 Rank
SciTegic.value.IntegerValue
102

@<SCITEGIC>MOL_PROPERTY
Conf_Id
SciTegic.value.IntegerValue
1215

@<SCITEGIC>MOL_PROPERTY
Probability
SciTegic.value.DoubleValue
0.02

@<SCITEGIC>MOL_PROPERTY
Sum Probability
SciTegic.value.DoubleValue
99.35

@<SCITEGIC>MOL_PROPERTY
Delta G
SciTegic.value.DoubleValue
3.773

@<SCITEGIC>MOL_PROPERTY
G
SciTegic.value.DoubleValue
37.475

@<SCITEGIC>MOL_PROPERTY
E
SciTegic.value.DoubleValue
-0.326

@<SCITEGIC>MOL_PROPERTY
-TS
SciTegic.value.DoubleValue
37.801

@<SCITEGIC>MOL_PROPERTY
U+W
SciTegic.value.DoubleValue
-24.470

@<SCITEGIC>MOL_PROPERTY
U
SciTegic.value.DoubleValue
28.013

@<SCITEGIC>MOL_PROPERTY
W
SciTegic.value.DoubleValue
-52.484

@<SCITEGIC>MOL_PROPERTY
W(PB)
SciTegic.value.DoubleValue
-54.954

@<SCITEGIC>MOL_PROPERTY
W(SA)
SciTegic.value.DoubleValue
2.471

@<SCITEGIC>MOL_PROPERTY
Valence
SciTegic.value.DoubleValue
6.671

@<SCITEGIC>MOL_PROPERTY
Coulomb
SciTegic.value.DoubleValue
20.180

@<SCITEGIC>MOL_PROPERTY
VdW
SciTegic.value.DoubleValue
1.162

@<SCITEGIC>MOL_PROPERTY
VdW6
SciTegic.value.DoubleValue
-9.852

@<SCITEGIC>MOL_PROPERTY
VdW12
SciTegic.value.DoubleValue
11.014

@<SCITEGIC>MOL_PROPERTY
Bond
SciTegic.value.DoubleValue
0.284

@<SCITEGIC>MOL_PROPERTY
Angle
SciTegic.value.DoubleValue
1.876

@<SCITEGIC>MOL_PROPERTY
Pdih
SciTegic.value.DoubleValue
4.512

@<SCITEGIC>MOL_PROPERTY
Idih
SciTegic.value.DoubleValue
0.000

@<SCITEGIC>MOL_PROPERTY
Tether
SciTegic.value.DoubleValue
0.000

@<TRIPOS>MOLECULE
guest-s15_vm2.mol2 : vm2 ligand conformer 103
          29          28           1
SMALL
USER_CHARGES
 
@<TRIPOS>ATOM
       1    C1      20.555136   19.738417   19.312280 C.3        1 MOL1        -0.2426
       2    H1      21.441807   20.334171   19.059454 H          1 MOL1         0.0959
       3    H2      20.628486   18.782038   18.778252 H          1 MOL1         0.0959
       4    H3      19.672048   20.272426   18.937798 H          1 MOL1         0.0959
       5    C2      20.463739   19.517477   20.836987 C.3        1 MOL1        -0.1410
       6    H4      20.433981   20.494590   21.336650 H          1 MOL1         0.0948
       7    H5      21.372843   19.008244   21.186052 H          1 MOL1         0.0948
       8    C3      19.218289   18.682614   21.217850 C.3        1 MOL1        -0.1435
       9    H6      18.306535   19.215927   20.915384 H          1 MOL1         0.0948
      10    H7      19.230496   17.744534   20.645858 H          1 MOL1         0.0948
      11    C4      19.143620   18.336212   22.724945 C.3        1 MOL1        -0.1435
      12    H8      20.054265   17.800145   23.017716 H          1 MOL1         0.0948
      13    H9      18.314813   17.630883   22.875836 H          1 MOL1         0.0948
      14    C5      18.916796   19.573458   23.632181 C.3        1 MOL1        -0.1435
      15    H10     19.721106   20.309358   23.504775 H          1 MOL1         0.0948
      16    H11     17.994447   20.072145   23.303694 H          1 MOL1         0.0948
      17    C6      18.772614   19.214784   25.135173 C.3        1 MOL1        -0.1500
      18    H12     18.374380   18.197838   25.248821 H          1 MOL1         0.0948
      19    H13     18.014889   19.881835   25.567163 H          1 MOL1         0.0948
      20    C7      20.065557   19.378502   25.970110 C.3        1 MOL1         0.1162
      21    H14     20.400608   20.416228   25.878254 H          1 MOL1         0.0910
      22    C8      21.205779   18.463373   25.493105 C.3        1 MOL1        -0.2491
      23    H15     20.890287   17.412863   25.471630 H          1 MOL1         0.0959
      24    H16     21.544106   18.747607   24.490033 H          1 MOL1         0.0959
      25    H17     22.072652   18.545310   26.160267 H          1 MOL1         0.0959
      26    N1      19.794470   19.151164   27.431370 N.4        1 MOL1        -0.5987
      27    H18     20.634884   19.304926   27.995919 H          1 MOL1         0.3605
      28    H19     19.478641   18.193729   27.608260 H          1 MOL1         0.3605
      29    H20     19.070716   19.784280   27.783806 H          1 MOL1         0.3605
@<TRIPOS>BOND
    1     1     2    1
    2     1     3    1
    3     1     4    1
    4     1     5    1
    5     5     6    1
    6     5     7    1
    7     5     8    1
    8     8     9    1
    9     8    10    1
   10     8    11    1
   11    11    12    1
   12    11    13    1
   13    11    14    1
   14    14    15    1
   15    14    16    1
   16    14    17    1
   17    17    18    1
   18    17    19    1
   19    17    20    1
   20    20    21    1
   21    20    22    1
   22    22    23    1
   23    22    24    1
   24    22    25    1
   25    20    26    1
   26    26    27    1
   27    26    28    1
   28    26    29    1
@<TRIPOS>SUBSTRUCTURE
       1 MOL1            1 RESIDUE      1      MOL     
@<SCITEGIC>MOL_PROPERTY
VM2 Rank
SciTegic.value.IntegerValue
103

@<SCITEGIC>MOL_PROPERTY
Conf_Id
SciTegic.value.IntegerValue
1002

@<SCITEGIC>MOL_PROPERTY
Probability
SciTegic.value.DoubleValue
0.02

@<SCITEGIC>MOL_PROPERTY
Sum Probability
SciTegic.value.DoubleValue
99.37

@<SCITEGIC>MOL_PROPERTY
Delta G
SciTegic.value.DoubleValue
3.783

@<SCITEGIC>MOL_PROPERTY
G
SciTegic.value.DoubleValue
37.485

@<SCITEGIC>MOL_PROPERTY
E
SciTegic.value.DoubleValue
-0.253

@<SCITEGIC>MOL_PROPERTY
-TS
SciTegic.value.DoubleValue
37.739

@<SCITEGIC>MOL_PROPERTY
U+W
SciTegic.value.DoubleValue
-24.398

@<SCITEGIC>MOL_PROPERTY
U
SciTegic.value.DoubleValue
27.862

@<SCITEGIC>MOL_PROPERTY
W
SciTegic.value.DoubleValue
-52.260

@<SCITEGIC>MOL_PROPERTY
W(PB)
SciTegic.value.DoubleValue
-54.709

@<SCITEGIC>MOL_PROPERTY
W(SA)
SciTegic.value.DoubleValue
2.449

@<SCITEGIC>MOL_PROPERTY
Valence
SciTegic.value.DoubleValue
6.792

@<SCITEGIC>MOL_PROPERTY
Coulomb
SciTegic.value.DoubleValue
19.861

@<SCITEGIC>MOL_PROPERTY
VdW
SciTegic.value.DoubleValue
1.208

@<SCITEGIC>MOL_PROPERTY
VdW6
SciTegic.value.DoubleValue
-9.832

@<SCITEGIC>MOL_PROPERTY
VdW12
SciTegic.value.DoubleValue
11.040

@<SCITEGIC>MOL_PROPERTY
Bond
SciTegic.value.DoubleValue
0.295

@<SCITEGIC>MOL_PROPERTY
Angle
SciTegic.value.DoubleValue
1.936

@<SCITEGIC>MOL_PROPERTY
Pdih
SciTegic.value.DoubleValue
4.561

@<SCITEGIC>MOL_PROPERTY
Idih
SciTegic.value.DoubleValue
0.000

@<SCITEGIC>MOL_PROPERTY
Tether
SciTegic.value.DoubleValue
0.000

@<TRIPOS>MOLECULE
guest-s15_vm2.mol2 : vm2 ligand conformer 104
          29          28           1
SMALL
USER_CHARGES
 
@<TRIPOS>ATOM
       1    C1      20.157578   17.814126   20.031625 C.3        1 MOL1        -0.2426
       2    H1      21.243436   17.773527   20.187456 H          1 MOL1         0.0959
       3    H2      19.675034   17.211092   20.810661 H          1 MOL1         0.0959
       4    H3      19.939120   17.340556   19.065740 H          1 MOL1         0.0959
       5    C2      19.648376   19.273345   20.045507 C.3        1 MOL1        -0.1410
       6    H4      18.556627   19.285255   19.920378 H          1 MOL1         0.0948
       7    H5      20.063351   19.801065   19.175415 H          1 MOL1         0.0948
       8    C3      20.037007   20.048512   21.327506 C.3        1 MOL1        -0.1435
       9    H6      21.130147   20.048826   21.438157 H          1 MOL1         0.0948
      10    H7      19.738399   21.098709   21.204198 H          1 MOL1         0.0948
      11    C4      19.382884   19.484355   22.611267 C.3        1 MOL1        -0.1435
      12    H8      19.716952   18.453691   22.772960 H          1 MOL1         0.0948
      13    H9      18.293207   19.443747   22.476997 H          1 MOL1         0.0948
      14    C5      19.714569   20.351569   23.850494 C.3        1 MOL1        -0.1435
      15    H10     20.801882   20.467632   23.958806 H          1 MOL1         0.0948
      16    H11     19.318304   21.361692   23.676883 H          1 MOL1         0.0948
      17    C6      19.103621   19.803470   25.167438 C.3        1 MOL1        -0.1500
      18    H12     18.193703   19.226821   24.954509 H          1 MOL1         0.0948
      19    H13     18.778569   20.662935   25.768593 H          1 MOL1         0.0948
      20    C7      20.074512   18.968715   26.037048 C.3        1 MOL1         0.1162
      21    H14     20.943727   19.591543   26.269702 H          1 MOL1         0.0910
      22    C8      20.571851   17.698154   25.327367 C.3        1 MOL1        -0.2491
      23    H15     19.733076   17.078695   24.986332 H          1 MOL1         0.0959
      24    H16     21.195251   17.949903   24.461625 H          1 MOL1         0.0959
      25    H17     21.188990   17.093708   26.003439 H          1 MOL1         0.0959
      26    N1      19.445602   18.613753   27.355748 N.4        1 MOL1        -0.5987
      27    H18     20.098985   18.102416   27.955986 H          1 MOL1         0.3605
      28    H19     18.620195   18.021874   27.228879 H          1 MOL1         0.3605
      29    H20     19.149764   19.448818   27.869576 H          1 MOL1         0.3605
@<TRIPOS>BOND
    1     1     2    1
    2     1     3    1
    3     1     4    1
    4     1     5    1
    5     5     6    1
    6     5     7    1
    7     5     8    1
    8     8     9    1
    9     8    10    1
   10     8    11    1
   11    11    12    1
   12    11    13    1
   13    11    14    1
   14    14    15    1
   15    14    16    1
   16    14    17    1
   17    17    18    1
   18    17    19    1
   19    17    20    1
   20    20    21    1
   21    20    22    1
   22    22    23    1
   23    22    24    1
   24    22    25    1
   25    20    26    1
   26    26    27    1
   27    26    28    1
   28    26    29    1
@<TRIPOS>SUBSTRUCTURE
       1 MOL1            1 RESIDUE      1      MOL     
@<SCITEGIC>MOL_PROPERTY
VM2 Rank
SciTegic.value.IntegerValue
104

@<SCITEGIC>MOL_PROPERTY
Conf_Id
SciTegic.value.IntegerValue
267

@<SCITEGIC>MOL_PROPERTY
Probability
SciTegic.value.DoubleValue
0.02

@<SCITEGIC>MOL_PROPERTY
Sum Probability
SciTegic.value.DoubleValue
99.39

@<SCITEGIC>MOL_PROPERTY
Delta G
SciTegic.value.DoubleValue
3.803

@<SCITEGIC>MOL_PROPERTY
G
SciTegic.value.DoubleValue
37.506

@<SCITEGIC>MOL_PROPERTY
E
SciTegic.value.DoubleValue
-0.288

@<SCITEGIC>MOL_PROPERTY
-TS
SciTegic.value.DoubleValue
37.793

@<SCITEGIC>MOL_PROPERTY
U+W
SciTegic.value.DoubleValue
-24.432

@<SCITEGIC>MOL_PROPERTY
U
SciTegic.value.DoubleValue
27.713

@<SCITEGIC>MOL_PROPERTY
W
SciTegic.value.DoubleValue
-52.145

@<SCITEGIC>MOL_PROPERTY
W(PB)
SciTegic.value.DoubleValue
-54.603

@<SCITEGIC>MOL_PROPERTY
W(SA)
SciTegic.value.DoubleValue
2.458

@<SCITEGIC>MOL_PROPERTY
Valence
SciTegic.value.DoubleValue
6.758

@<SCITEGIC>MOL_PROPERTY
Coulomb
SciTegic.value.DoubleValue
19.720

@<SCITEGIC>MOL_PROPERTY
VdW
SciTegic.value.DoubleValue
1.235

@<SCITEGIC>MOL_PROPERTY
VdW6
SciTegic.value.DoubleValue
-9.782

@<SCITEGIC>MOL_PROPERTY
VdW12
SciTegic.value.DoubleValue
11.017

@<SCITEGIC>MOL_PROPERTY
Bond
SciTegic.value.DoubleValue
0.287

@<SCITEGIC>MOL_PROPERTY
Angle
SciTegic.value.DoubleValue
1.880

@<SCITEGIC>MOL_PROPERTY
Pdih
SciTegic.value.DoubleValue
4.591

@<SCITEGIC>MOL_PROPERTY
Idih
SciTegic.value.DoubleValue
0.000

@<SCITEGIC>MOL_PROPERTY
Tether
SciTegic.value.DoubleValue
0.000

@<TRIPOS>MOLECULE
guest-s15_vm2.mol2 : vm2 ligand conformer 105
          29          28           1
SMALL
USER_CHARGES
 
@<TRIPOS>ATOM
       1    C1      19.386388   18.804444   19.327913 C.3        1 MOL1        -0.2426
       2    H1      20.255335   19.331148   18.912272 H          1 MOL1         0.0959
       3    H2      19.333825   17.815164   18.855065 H          1 MOL1         0.0959
       4    H3      18.482616   19.360638   19.046734 H          1 MOL1         0.0959
       5    C2      19.501150   18.670147   20.861089 C.3        1 MOL1        -0.1410
       6    H4      20.392494   18.075331   21.101032 H          1 MOL1         0.0948
       7    H5      18.633975   18.114119   21.243798 H          1 MOL1         0.0948
       8    C3      19.580958   20.052974   21.549840 C.3        1 MOL1        -0.1435
       9    H6      20.475170   20.588714   21.202557 H          1 MOL1         0.0948
      10    H7      18.718841   20.658296   21.237362 H          1 MOL1         0.0948
      11    C4      19.590751   19.972581   23.095857 C.3        1 MOL1        -0.1435
      12    H8      18.680440   19.457643   23.426173 H          1 MOL1         0.0948
      13    H9      19.545140   20.994360   23.497114 H          1 MOL1         0.0948
      14    C5      20.842231   19.257966   23.664312 C.3        1 MOL1        -0.1435
      15    H10     20.820538   18.193107   23.399828 H          1 MOL1         0.0948
      16    H11     21.734255   19.669419   23.172308 H          1 MOL1         0.0948
      17    C6      21.033145   19.411530   25.199584 C.3        1 MOL1        -0.1500
      18    H12     21.176071   20.472401   25.443298 H          1 MOL1         0.0948
      19    H13     21.978149   18.921669   25.468889 H          1 MOL1         0.0948
      20    C7      19.927403   18.829087   26.116592 C.3        1 MOL1         0.1162
      21    H14     20.327077   18.834398   27.135380 H          1 MOL1         0.0910
      22    C8      19.581085   17.371215   25.767433 C.3        1 MOL1        -0.2491
      23    H15     19.085386   17.295130   24.792245 H          1 MOL1         0.0959
      24    H16     20.486345   16.751979   25.743067 H          1 MOL1         0.0959
      25    H17     18.906740   16.945712   26.520630 H          1 MOL1         0.0959
      26    N1      18.692890   19.686055   26.171379 N.4        1 MOL1        -0.5987
      27    H18     18.244750   19.749719   25.255041 H          1 MOL1         0.3605
      28    H19     18.912247   20.639061   26.475292 H          1 MOL1         0.3605
      29    H20     18.004111   19.306899   26.827566 H          1 MOL1         0.3605
@<TRIPOS>BOND
    1     1     2    1
    2     1     3    1
    3     1     4    1
    4     1     5    1
    5     5     6    1
    6     5     7    1
    7     5     8    1
    8     8     9    1
    9     8    10    1
   10     8    11    1
   11    11    12    1
   12    11    13    1
   13    11    14    1
   14    14    15    1
   15    14    16    1
   16    14    17    1
   17    17    18    1
   18    17    19    1
   19    17    20    1
   20    20    21    1
   21    20    22    1
   22    22    23    1
   23    22    24    1
   24    22    25    1
   25    20    26    1
   26    26    27    1
   27    26    28    1
   28    26    29    1
@<TRIPOS>SUBSTRUCTURE
       1 MOL1            1 RESIDUE      1      MOL     
@<SCITEGIC>MOL_PROPERTY
VM2 Rank
SciTegic.value.IntegerValue
105

@<SCITEGIC>MOL_PROPERTY
Conf_Id
SciTegic.value.IntegerValue
648

@<SCITEGIC>MOL_PROPERTY
Probability
SciTegic.value.DoubleValue
0.02

@<SCITEGIC>MOL_PROPERTY
Sum Probability
SciTegic.value.DoubleValue
99.40

@<SCITEGIC>MOL_PROPERTY
Delta G
SciTegic.value.DoubleValue
3.828

@<SCITEGIC>MOL_PROPERTY
G
SciTegic.value.DoubleValue
37.530

@<SCITEGIC>MOL_PROPERTY
E
SciTegic.value.DoubleValue
-0.572

@<SCITEGIC>MOL_PROPERTY
-TS
SciTegic.value.DoubleValue
38.103

@<SCITEGIC>MOL_PROPERTY
U+W
SciTegic.value.DoubleValue
-24.717

@<SCITEGIC>MOL_PROPERTY
U
SciTegic.value.DoubleValue
27.804

@<SCITEGIC>MOL_PROPERTY
W
SciTegic.value.DoubleValue
-52.521

@<SCITEGIC>MOL_PROPERTY
W(PB)
SciTegic.value.DoubleValue
-54.966

@<SCITEGIC>MOL_PROPERTY
W(SA)
SciTegic.value.DoubleValue
2.445

@<SCITEGIC>MOL_PROPERTY
Valence
SciTegic.value.DoubleValue
5.527

@<SCITEGIC>MOL_PROPERTY
Coulomb
SciTegic.value.DoubleValue
21.305

@<SCITEGIC>MOL_PROPERTY
VdW
SciTegic.value.DoubleValue
0.973

@<SCITEGIC>MOL_PROPERTY
VdW6
SciTegic.value.DoubleValue
-10.820

@<SCITEGIC>MOL_PROPERTY
VdW12
SciTegic.value.DoubleValue
11.793

@<SCITEGIC>MOL_PROPERTY
Bond
SciTegic.value.DoubleValue
0.332

@<SCITEGIC>MOL_PROPERTY
Angle
SciTegic.value.DoubleValue
2.322

@<SCITEGIC>MOL_PROPERTY
Pdih
SciTegic.value.DoubleValue
2.873

@<SCITEGIC>MOL_PROPERTY
Idih
SciTegic.value.DoubleValue
0.000

@<SCITEGIC>MOL_PROPERTY
Tether
SciTegic.value.DoubleValue
0.000

@<TRIPOS>MOLECULE
guest-s15_vm2.mol2 : vm2 ligand conformer 106
          29          28           1
SMALL
USER_CHARGES
 
@<TRIPOS>ATOM
       1    C1      21.021940   20.181724   20.230159 C.3        1 MOL1        -0.2426
       2    H1      20.502798   21.148124   20.269985 H          1 MOL1         0.0959
       3    H2      21.654693   20.093538   21.121940 H          1 MOL1         0.0959
       4    H3      21.685021   20.192645   19.355438 H          1 MOL1         0.0959
       5    C2      20.014803   19.013634   20.130283 C.3        1 MOL1        -0.1410
       6    H4      20.556955   18.057723   20.125489 H          1 MOL1         0.0948
       7    H5      19.494374   19.076729   19.164399 H          1 MOL1         0.0948
       8    C3      18.959944   19.011339   21.262915 C.3        1 MOL1        -0.1435
       9    H6      18.404961   19.959526   21.249373 H          1 MOL1         0.0948
      10    H7      18.226366   18.220579   21.053585 H          1 MOL1         0.0948
      11    C4      19.565653   18.781280   22.668082 C.3        1 MOL1        -0.1435
      12    H8      20.247953   19.605761   22.908463 H          1 MOL1         0.0948
      13    H9      20.159109   17.856746   22.663756 H          1 MOL1         0.0948
      14    C5      18.470072   18.688546   23.755752 C.3        1 MOL1        -0.1435
      15    H10     17.920587   19.639012   23.802659 H          1 MOL1         0.0948
      16    H11     17.737128   17.924137   23.462869 H          1 MOL1         0.0948
      17    C6      19.005856   18.335680   25.166686 C.3        1 MOL1        -0.1500
      18    H12     19.480681   17.345491   25.153116 H          1 MOL1         0.0948
      19    H13     18.137269   18.237465   25.831256 H          1 MOL1         0.0948
      20    C7      19.974874   19.392333   25.750756 C.3        1 MOL1         0.1162
      21    H14     19.822463   20.331535   25.210175 H          1 MOL1         0.0910
      22    C8      21.445437   18.963851   25.594085 C.3        1 MOL1        -0.2491
      23    H15     21.653148   18.050139   26.164914 H          1 MOL1         0.0959
      24    H16     21.699889   18.770635   24.546226 H          1 MOL1         0.0959
      25    H17     22.117567   19.750652   25.958057 H          1 MOL1         0.0959
      26    N1      19.677422   19.687613   27.195282 N.4        1 MOL1        -0.5987
      27    H18     18.717226   20.021052   27.321403 H          1 MOL1         0.3605
      28    H19     20.301797   20.410019   27.565501 H          1 MOL1         0.3605
      29    H20     19.793868   18.854715   27.778926 H          1 MOL1         0.3605
@<TRIPOS>BOND
    1     1     2    1
    2     1     3    1
    3     1     4    1
    4     1     5    1
    5     5     6    1
    6     5     7    1
    7     5     8    1
    8     8     9    1
    9     8    10    1
   10     8    11    1
   11    11    12    1
   12    11    13    1
   13    11    14    1
   14    14    15    1
   15    14    16    1
   16    14    17    1
   17    17    18    1
   18    17    19    1
   19    17    20    1
   20    20    21    1
   21    20    22    1
   22    22    23    1
   23    22    24    1
   24    22    25    1
   25    20    26    1
   26    26    27    1
   27    26    28    1
   28    26    29    1
@<TRIPOS>SUBSTRUCTURE
       1 MOL1            1 RESIDUE      1      MOL     
@<SCITEGIC>MOL_PROPERTY
VM2 Rank
SciTegic.value.IntegerValue
106

@<SCITEGIC>MOL_PROPERTY
Conf_Id
SciTegic.value.IntegerValue
4

@<SCITEGIC>MOL_PROPERTY
Probability
SciTegic.value.DoubleValue
0.02

@<SCITEGIC>MOL_PROPERTY
Sum Probability
SciTegic.value.DoubleValue
99.42

@<SCITEGIC>MOL_PROPERTY
Delta G
SciTegic.value.DoubleValue
3.849

@<SCITEGIC>MOL_PROPERTY
G
SciTegic.value.DoubleValue
37.551

@<SCITEGIC>MOL_PROPERTY
E
SciTegic.value.DoubleValue
-0.111

@<SCITEGIC>MOL_PROPERTY
-TS
SciTegic.value.DoubleValue
37.662

@<SCITEGIC>MOL_PROPERTY
U+W
SciTegic.value.DoubleValue
-24.256

@<SCITEGIC>MOL_PROPERTY
U
SciTegic.value.DoubleValue
27.879

@<SCITEGIC>MOL_PROPERTY
W
SciTegic.value.DoubleValue
-52.135

@<SCITEGIC>MOL_PROPERTY
W(PB)
SciTegic.value.DoubleValue
-54.595

@<SCITEGIC>MOL_PROPERTY
W(SA)
SciTegic.value.DoubleValue
2.460

@<SCITEGIC>MOL_PROPERTY
Valence
SciTegic.value.DoubleValue
6.782

@<SCITEGIC>MOL_PROPERTY
Coulomb
SciTegic.value.DoubleValue
19.866

@<SCITEGIC>MOL_PROPERTY
VdW
SciTegic.value.DoubleValue
1.231

@<SCITEGIC>MOL_PROPERTY
VdW6
SciTegic.value.DoubleValue
-9.739

@<SCITEGIC>MOL_PROPERTY
VdW12
SciTegic.value.DoubleValue
10.970

@<SCITEGIC>MOL_PROPERTY
Bond
SciTegic.value.DoubleValue
0.261

@<SCITEGIC>MOL_PROPERTY
Angle
SciTegic.value.DoubleValue
1.615

@<SCITEGIC>MOL_PROPERTY
Pdih
SciTegic.value.DoubleValue
4.906

@<SCITEGIC>MOL_PROPERTY
Idih
SciTegic.value.DoubleValue
0.000

@<SCITEGIC>MOL_PROPERTY
Tether
SciTegic.value.DoubleValue
0.000

@<TRIPOS>MOLECULE
guest-s15_vm2.mol2 : vm2 ligand conformer 107
          29          28           1
SMALL
USER_CHARGES
 
@<TRIPOS>ATOM
       1    C1      19.083854   20.066970   19.957056 C.3        1 MOL1        -0.2426
       2    H1      19.234331   20.447547   18.938517 H          1 MOL1         0.0959
       3    H2      18.543647   19.115292   19.877937 H          1 MOL1         0.0959
       4    H3      18.445128   20.781765   20.491948 H          1 MOL1         0.0959
       5    C2      20.441037   19.889700   20.674666 C.3        1 MOL1        -0.1410
       6    H4      20.992083   20.839606   20.632741 H          1 MOL1         0.0948
       7    H5      21.052583   19.155338   20.132037 H          1 MOL1         0.0948
       8    C3      20.298762   19.461264   22.154848 C.3        1 MOL1        -0.1435
       9    H6      21.297385   19.445514   22.612621 H          1 MOL1         0.0948
      10    H7      19.714400   20.222896   22.686348 H          1 MOL1         0.0948
      11    C4      19.633907   18.073744   22.327963 C.3        1 MOL1        -0.1435
      12    H8      20.091364   17.370193   21.618793 H          1 MOL1         0.0948
      13    H9      18.571969   18.135760   22.055040 H          1 MOL1         0.0948
      14    C5      19.759899   17.470724   23.751103 C.3        1 MOL1        -0.1435
      15    H10     19.310153   16.468681   23.721179 H          1 MOL1         0.0948
      16    H11     20.816201   17.305513   23.995551 H          1 MOL1         0.0948
      17    C6      19.045016   18.275719   24.871331 C.3        1 MOL1        -0.1500
      18    H12     18.801532   17.591313   25.694853 H          1 MOL1         0.0948
      19    H13     18.080685   18.632060   24.485904 H          1 MOL1         0.0948
      20    C7      19.841023   19.469824   25.452374 C.3        1 MOL1         0.1162
      21    H14     20.185105   20.102146   24.631582 H          1 MOL1         0.0910
      22    C8      21.071182   19.010456   26.255803 C.3        1 MOL1        -0.2491
      23    H15     21.586211   19.871998   26.698332 H          1 MOL1         0.0959
      24    H16     20.783822   18.332766   27.069332 H          1 MOL1         0.0959
      25    H17     21.797027   18.493005   25.618782 H          1 MOL1         0.0959
      26    N1      18.961320   20.337598   26.308855 N.4        1 MOL1        -0.5987
      27    H18     18.598873   19.821417   27.115076 H          1 MOL1         0.3605
      28    H19     18.156874   20.693473   25.784417 H          1 MOL1         0.3605
      29    H20     19.472681   21.147983   26.670081 H          1 MOL1         0.3605
@<TRIPOS>BOND
    1     1     2    1
    2     1     3    1
    3     1     4    1
    4     1     5    1
    5     5     6    1
    6     5     7    1
    7     5     8    1
    8     8     9    1
    9     8    10    1
   10     8    11    1
   11    11    12    1
   12    11    13    1
   13    11    14    1
   14    14    15    1
   15    14    16    1
   16    14    17    1
   17    17    18    1
   18    17    19    1
   19    17    20    1
   20    20    21    1
   21    20    22    1
   22    22    23    1
   23    22    24    1
   24    22    25    1
   25    20    26    1
   26    26    27    1
   27    26    28    1
   28    26    29    1
@<TRIPOS>SUBSTRUCTURE
       1 MOL1            1 RESIDUE      1      MOL     
@<SCITEGIC>MOL_PROPERTY
VM2 Rank
SciTegic.value.IntegerValue
107

@<SCITEGIC>MOL_PROPERTY
Conf_Id
SciTegic.value.IntegerValue
1321

@<SCITEGIC>MOL_PROPERTY
Probability
SciTegic.value.DoubleValue
0.02

@<SCITEGIC>MOL_PROPERTY
Sum Probability
SciTegic.value.DoubleValue
99.44

@<SCITEGIC>MOL_PROPERTY
Delta G
SciTegic.value.DoubleValue
3.857

@<SCITEGIC>MOL_PROPERTY
G
SciTegic.value.DoubleValue
37.559

@<SCITEGIC>MOL_PROPERTY
E
SciTegic.value.DoubleValue
-0.147

@<SCITEGIC>MOL_PROPERTY
-TS
SciTegic.value.DoubleValue
37.706

@<SCITEGIC>MOL_PROPERTY
U+W
SciTegic.value.DoubleValue
-24.292

@<SCITEGIC>MOL_PROPERTY
U
SciTegic.value.DoubleValue
28.431

@<SCITEGIC>MOL_PROPERTY
W
SciTegic.value.DoubleValue
-52.722

@<SCITEGIC>MOL_PROPERTY
W(PB)
SciTegic.value.DoubleValue
-55.174

@<SCITEGIC>MOL_PROPERTY
W(SA)
SciTegic.value.DoubleValue
2.452

@<SCITEGIC>MOL_PROPERTY
Valence
SciTegic.value.DoubleValue
6.780

@<SCITEGIC>MOL_PROPERTY
Coulomb
SciTegic.value.DoubleValue
20.578

@<SCITEGIC>MOL_PROPERTY
VdW
SciTegic.value.DoubleValue
1.072

@<SCITEGIC>MOL_PROPERTY
VdW6
SciTegic.value.DoubleValue
-10.670

@<SCITEGIC>MOL_PROPERTY
VdW12
SciTegic.value.DoubleValue
11.742

@<SCITEGIC>MOL_PROPERTY
Bond
SciTegic.value.DoubleValue
0.323

@<SCITEGIC>MOL_PROPERTY
Angle
SciTegic.value.DoubleValue
2.399

@<SCITEGIC>MOL_PROPERTY
Pdih
SciTegic.value.DoubleValue
4.058

@<SCITEGIC>MOL_PROPERTY
Idih
SciTegic.value.DoubleValue
0.000

@<SCITEGIC>MOL_PROPERTY
Tether
SciTegic.value.DoubleValue
0.000

@<TRIPOS>MOLECULE
guest-s15_vm2.mol2 : vm2 ligand conformer 108
          29          28           1
SMALL
USER_CHARGES
 
@<TRIPOS>ATOM
       1    C1      20.859399   19.990661   19.804737 C.3        1 MOL1        -0.2426
       2    H1      21.827445   19.617736   20.163931 H          1 MOL1         0.0959
       3    H2      20.569224   19.398737   18.926868 H          1 MOL1         0.0959
       4    H3      20.998114   21.029910   19.479558 H          1 MOL1         0.0959
       5    C2      19.787218   19.904385   20.911346 C.3        1 MOL1        -0.1410
       6    H4      18.841553   20.315829   20.531689 H          1 MOL1         0.0948
       7    H5      20.087851   20.540222   21.752565 H          1 MOL1         0.0948
       8    C3      19.566397   18.445361   21.378191 C.3        1 MOL1        -0.1435
       9    H6      19.236799   17.856509   20.511002 H          1 MOL1         0.0948
      10    H7      20.516023   17.998875   21.703671 H          1 MOL1         0.0948
      11    C4      18.500957   18.308573   22.497054 C.3        1 MOL1        -0.1435
      12    H8      17.945909   17.375560   22.327278 H          1 MOL1         0.0948
      13    H9      17.757049   19.113112   22.416645 H          1 MOL1         0.0948
      14    C5      19.074954   18.253325   23.936347 C.3        1 MOL1        -0.1435
      15    H10     18.240440   18.073324   24.626382 H          1 MOL1         0.0948
      16    H11     19.737673   17.381853   24.021198 H          1 MOL1         0.0948
      17    C6      19.835599   19.535874   24.365769 C.3        1 MOL1        -0.1500
      18    H12     19.215864   20.415383   24.147917 H          1 MOL1         0.0948
      19    H13     20.744589   19.639425   23.760316 H          1 MOL1         0.0948
      20    C7      20.243674   19.580336   25.857210 C.3        1 MOL1         0.1162
      21    H14     20.765927   20.527658   26.023312 H          1 MOL1         0.0910
      22    C8      21.212766   18.443254   26.224765 C.3        1 MOL1        -0.2491
      23    H15     22.078817   18.436301   25.551339 H          1 MOL1         0.0959
      24    H16     21.587522   18.573975   27.247339 H          1 MOL1         0.0959
      25    H17     20.725849   17.462311   26.169082 H          1 MOL1         0.0959
      26    N1      19.055035   19.594230   26.778580 N.4        1 MOL1        -0.5987
      27    H18     19.341571   19.687371   27.757280 H          1 MOL1         0.3605
      28    H19     18.512780   18.730548   26.698402 H          1 MOL1         0.3605
      29    H20     18.425995   20.374394   26.568049 H          1 MOL1         0.3605
@<TRIPOS>BOND
    1     1     2    1
    2     1     3    1
    3     1     4    1
    4     1     5    1
    5     5     6    1
    6     5     7    1
    7     5     8    1
    8     8     9    1
    9     8    10    1
   10     8    11    1
   11    11    12    1
   12    11    13    1
   13    11    14    1
   14    14    15    1
   15    14    16    1
   16    14    17    1
   17    17    18    1
   18    17    19    1
   19    17    20    1
   20    20    21    1
   21    20    22    1
   22    22    23    1
   23    22    24    1
   24    22    25    1
   25    20    26    1
   26    26    27    1
   27    26    28    1
   28    26    29    1
@<TRIPOS>SUBSTRUCTURE
       1 MOL1            1 RESIDUE      1      MOL     
@<SCITEGIC>MOL_PROPERTY
VM2 Rank
SciTegic.value.IntegerValue
108

@<SCITEGIC>MOL_PROPERTY
Conf_Id
SciTegic.value.IntegerValue
560

@<SCITEGIC>MOL_PROPERTY
Probability
SciTegic.value.DoubleValue
0.02

@<SCITEGIC>MOL_PROPERTY
Sum Probability
SciTegic.value.DoubleValue
99.45

@<SCITEGIC>MOL_PROPERTY
Delta G
SciTegic.value.DoubleValue
3.858

@<SCITEGIC>MOL_PROPERTY
G
SciTegic.value.DoubleValue
37.561

@<SCITEGIC>MOL_PROPERTY
E
SciTegic.value.DoubleValue
-0.374

@<SCITEGIC>MOL_PROPERTY
-TS
SciTegic.value.DoubleValue
37.935

@<SCITEGIC>MOL_PROPERTY
U+W
SciTegic.value.DoubleValue
-24.519

@<SCITEGIC>MOL_PROPERTY
U
SciTegic.value.DoubleValue
27.916

@<SCITEGIC>MOL_PROPERTY
W
SciTegic.value.DoubleValue
-52.435

@<SCITEGIC>MOL_PROPERTY
W(PB)
SciTegic.value.DoubleValue
-54.868

@<SCITEGIC>MOL_PROPERTY
W(SA)
SciTegic.value.DoubleValue
2.433

@<SCITEGIC>MOL_PROPERTY
Valence
SciTegic.value.DoubleValue
6.693

@<SCITEGIC>MOL_PROPERTY
Coulomb
SciTegic.value.DoubleValue
20.015

@<SCITEGIC>MOL_PROPERTY
VdW
SciTegic.value.DoubleValue
1.208

@<SCITEGIC>MOL_PROPERTY
VdW6
SciTegic.value.DoubleValue
-10.295

@<SCITEGIC>MOL_PROPERTY
VdW12
SciTegic.value.DoubleValue
11.503

@<SCITEGIC>MOL_PROPERTY
Bond
SciTegic.value.DoubleValue
0.312

@<SCITEGIC>MOL_PROPERTY
Angle
SciTegic.value.DoubleValue
1.939

@<SCITEGIC>MOL_PROPERTY
Pdih
SciTegic.value.DoubleValue
4.441

@<SCITEGIC>MOL_PROPERTY
Idih
SciTegic.value.DoubleValue
0.000

@<SCITEGIC>MOL_PROPERTY
Tether
SciTegic.value.DoubleValue
0.000

@<TRIPOS>MOLECULE
guest-s15_vm2.mol2 : vm2 ligand conformer 109
          29          28           1
SMALL
USER_CHARGES
 
@<TRIPOS>ATOM
       1    C1      19.627234   20.060843   19.701542 C.3        1 MOL1        -0.2426
       2    H1      19.251445   21.037879   20.031978 H          1 MOL1         0.0959
       3    H2      20.070161   20.191453   18.705707 H          1 MOL1         0.0959
       4    H3      18.772637   19.381861   19.594209 H          1 MOL1         0.0959
       5    C2      20.677412   19.505844   20.690703 C.3        1 MOL1        -0.1410
       6    H4      21.563303   20.155600   20.662266 H          1 MOL1         0.0948
       7    H5      21.013414   18.513806   20.357979 H          1 MOL1         0.0948
       8    C3      20.170412   19.425995   22.151065 C.3        1 MOL1        -0.1435
       9    H6      21.029064   19.177652   22.787195 H          1 MOL1         0.0948
      10    H7      19.811837   20.414271   22.469773 H          1 MOL1         0.0948
      11    C4      19.060671   18.366347   22.362237 C.3        1 MOL1        -0.1435
      12    H8      19.462090   17.369788   22.132594 H          1 MOL1         0.0948
      13    H9      18.247449   18.539130   21.646192 H          1 MOL1         0.0948
      14    C5      18.439715   18.357246   23.783328 C.3        1 MOL1        -0.1435
      15    H10     17.923704   19.307448   23.971042 H          1 MOL1         0.0948
      16    H11     17.652193   17.591017   23.791404 H          1 MOL1         0.0948
      17    C6      19.433621   18.031540   24.931362 C.3        1 MOL1        -0.1500
      18    H12     20.152497   17.278535   24.581950 H          1 MOL1         0.0948
      19    H13     18.880063   17.559104   25.753747 H          1 MOL1         0.0948
      20    C7      20.188172   19.257340   25.496860 C.3        1 MOL1         0.1162
      21    H14     20.675526   19.785377   24.674337 H          1 MOL1         0.0910
      22    C8      21.275083   18.804301   26.484327 C.3        1 MOL1        -0.2491
      23    H15     21.834753   19.666126   26.868296 H          1 MOL1         0.0959
      24    H16     20.838614   18.271767   27.338644 H          1 MOL1         0.0959
      25    H17     21.992056   18.134075   25.993911 H          1 MOL1         0.0959
      26    N1      19.263681   20.246545   26.152575 N.4        1 MOL1        -0.5987
      27    H18     18.770092   19.826632   26.944774 H          1 MOL1         0.3605
      28    H19     18.557363   20.590529   25.496685 H          1 MOL1         0.3605
      29    H20     19.775663   21.059611   26.506699 H          1 MOL1         0.3605
@<TRIPOS>BOND
    1     1     2    1
    2     1     3    1
    3     1     4    1
    4     1     5    1
    5     5     6    1
    6     5     7    1
    7     5     8    1
    8     8     9    1
    9     8    10    1
   10     8    11    1
   11    11    12    1
   12    11    13    1
   13    11    14    1
   14    14    15    1
   15    14    16    1
   16    14    17    1
   17    17    18    1
   18    17    19    1
   19    17    20    1
   20    20    21    1
   21    20    22    1
   22    22    23    1
   23    22    24    1
   24    22    25    1
   25    20    26    1
   26    26    27    1
   27    26    28    1
   28    26    29    1
@<TRIPOS>SUBSTRUCTURE
       1 MOL1            1 RESIDUE      1      MOL     
@<SCITEGIC>MOL_PROPERTY
VM2 Rank
SciTegic.value.IntegerValue
109

@<SCITEGIC>MOL_PROPERTY
Conf_Id
SciTegic.value.IntegerValue
1623

@<SCITEGIC>MOL_PROPERTY
Probability
SciTegic.value.DoubleValue
0.02

@<SCITEGIC>MOL_PROPERTY
Sum Probability
SciTegic.value.DoubleValue
99.47

@<SCITEGIC>MOL_PROPERTY
Delta G
SciTegic.value.DoubleValue
3.862

@<SCITEGIC>MOL_PROPERTY
G
SciTegic.value.DoubleValue
37.564

@<SCITEGIC>MOL_PROPERTY
E
SciTegic.value.DoubleValue
-0.218

@<SCITEGIC>MOL_PROPERTY
-TS
SciTegic.value.DoubleValue
37.782

@<SCITEGIC>MOL_PROPERTY
U+W
SciTegic.value.DoubleValue
-24.362

@<SCITEGIC>MOL_PROPERTY
U
SciTegic.value.DoubleValue
28.056

@<SCITEGIC>MOL_PROPERTY
W
SciTegic.value.DoubleValue
-52.418

@<SCITEGIC>MOL_PROPERTY
W(PB)
SciTegic.value.DoubleValue
-54.882

@<SCITEGIC>MOL_PROPERTY
W(SA)
SciTegic.value.DoubleValue
2.464

@<SCITEGIC>MOL_PROPERTY
Valence
SciTegic.value.DoubleValue
6.325

@<SCITEGIC>MOL_PROPERTY
Coulomb
SciTegic.value.DoubleValue
20.690

@<SCITEGIC>MOL_PROPERTY
VdW
SciTegic.value.DoubleValue
1.041

@<SCITEGIC>MOL_PROPERTY
VdW6
SciTegic.value.DoubleValue
-10.427

@<SCITEGIC>MOL_PROPERTY
VdW12
SciTegic.value.DoubleValue
11.468

@<SCITEGIC>MOL_PROPERTY
Bond
SciTegic.value.DoubleValue
0.315

@<SCITEGIC>MOL_PROPERTY
Angle
SciTegic.value.DoubleValue
2.080

@<SCITEGIC>MOL_PROPERTY
Pdih
SciTegic.value.DoubleValue
3.930

@<SCITEGIC>MOL_PROPERTY
Idih
SciTegic.value.DoubleValue
0.000

@<SCITEGIC>MOL_PROPERTY
Tether
SciTegic.value.DoubleValue
0.000

@<TRIPOS>MOLECULE
guest-s15_vm2.mol2 : vm2 ligand conformer 110
          29          28           1
SMALL
USER_CHARGES
 
@<TRIPOS>ATOM
       1    C1      18.754695   19.029169   19.620853 C.3        1 MOL1        -0.2426
       2    H1      18.784548   20.089558   19.338521 H          1 MOL1         0.0959
       3    H2      18.481355   18.451601   18.728315 H          1 MOL1         0.0959
       4    H3      17.955526   18.891912   20.359734 H          1 MOL1         0.0959
       5    C2      20.121725   18.561678   20.169615 C.3        1 MOL1        -0.1410
       6    H4      20.861815   18.603248   19.358263 H          1 MOL1         0.0948
       7    H5      20.057131   17.507442   20.473142 H          1 MOL1         0.0948
       8    C3      20.634468   19.416776   21.353402 C.3        1 MOL1        -0.1435
       9    H6      21.651423   19.086679   21.606559 H          1 MOL1         0.0948
      10    H7      20.719290   20.465975   21.038422 H          1 MOL1         0.0948
      11    C4      19.743580   19.320433   22.614893 C.3        1 MOL1        -0.1435
      12    H8      19.609719   18.265797   22.883209 H          1 MOL1         0.0948
      13    H9      18.744190   19.717608   22.394127 H          1 MOL1         0.0948
      14    C5      20.346762   20.110409   23.802386 C.3        1 MOL1        -0.1435
      15    H10     21.372536   19.774269   24.007809 H          1 MOL1         0.0948
      16    H11     20.428086   21.164865   23.503945 H          1 MOL1         0.0948
      17    C6      19.491522   20.029969   25.094765 C.3        1 MOL1        -0.1500
      18    H12     18.434834   19.868671   24.843408 H          1 MOL1         0.0948
      19    H13     19.535041   21.010970   25.586160 H          1 MOL1         0.0948
      20    C7      19.963648   18.974007   26.123135 C.3        1 MOL1         0.1162
      21    H14     21.002364   19.196190   26.386349 H          1 MOL1         0.0910
      22    C8      19.904784   17.537984   25.575904 C.3        1 MOL1        -0.2491
      23    H15     18.901065   17.293798   25.206436 H          1 MOL1         0.0959
      24    H16     20.621646   17.399370   24.758403 H          1 MOL1         0.0959
      25    H17     20.165204   16.814663   26.358388 H          1 MOL1         0.0959
      26    N1      19.174816   19.075577   27.399045 N.4        1 MOL1        -0.5987
      27    H18     19.238864   20.012047   27.808672 H          1 MOL1         0.3605
      28    H19     19.513356   18.412029   28.101726 H          1 MOL1         0.3605
      29    H20     18.183330   18.875243   27.242398 H          1 MOL1         0.3605
@<TRIPOS>BOND
    1     1     2    1
    2     1     3    1
    3     1     4    1
    4     1     5    1
    5     5     6    1
    6     5     7    1
    7     5     8    1
    8     8     9    1
    9     8    10    1
   10     8    11    1
   11    11    12    1
   12    11    13    1
   13    11    14    1
   14    14    15    1
   15    14    16    1
   16    14    17    1
   17    17    18    1
   18    17    19    1
   19    17    20    1
   20    20    21    1
   21    20    22    1
   22    22    23    1
   23    22    24    1
   24    22    25    1
   25    20    26    1
   26    26    27    1
   27    26    28    1
   28    26    29    1
@<TRIPOS>SUBSTRUCTURE
       1 MOL1            1 RESIDUE      1      MOL     
@<SCITEGIC>MOL_PROPERTY
VM2 Rank
SciTegic.value.IntegerValue
110

@<SCITEGIC>MOL_PROPERTY
Conf_Id
SciTegic.value.IntegerValue
293

@<SCITEGIC>MOL_PROPERTY
Probability
SciTegic.value.DoubleValue
0.02

@<SCITEGIC>MOL_PROPERTY
Sum Probability
SciTegic.value.DoubleValue
99.48

@<SCITEGIC>MOL_PROPERTY
Delta G
SciTegic.value.DoubleValue
3.871

@<SCITEGIC>MOL_PROPERTY
G
SciTegic.value.DoubleValue
37.574

@<SCITEGIC>MOL_PROPERTY
E
SciTegic.value.DoubleValue
-0.213

@<SCITEGIC>MOL_PROPERTY
-TS
SciTegic.value.DoubleValue
37.787

@<SCITEGIC>MOL_PROPERTY
U+W
SciTegic.value.DoubleValue
-24.357

@<SCITEGIC>MOL_PROPERTY
U
SciTegic.value.DoubleValue
27.696

@<SCITEGIC>MOL_PROPERTY
W
SciTegic.value.DoubleValue
-52.053

@<SCITEGIC>MOL_PROPERTY
W(PB)
SciTegic.value.DoubleValue
-54.527

@<SCITEGIC>MOL_PROPERTY
W(SA)
SciTegic.value.DoubleValue
2.474

@<SCITEGIC>MOL_PROPERTY
Valence
SciTegic.value.DoubleValue
6.761

@<SCITEGIC>MOL_PROPERTY
Coulomb
SciTegic.value.DoubleValue
19.663

@<SCITEGIC>MOL_PROPERTY
VdW
SciTegic.value.DoubleValue
1.272

@<SCITEGIC>MOL_PROPERTY
VdW6
SciTegic.value.DoubleValue
-9.717

@<SCITEGIC>MOL_PROPERTY
VdW12
SciTegic.value.DoubleValue
10.988

@<SCITEGIC>MOL_PROPERTY
Bond
SciTegic.value.DoubleValue
0.286

@<SCITEGIC>MOL_PROPERTY
Angle
SciTegic.value.DoubleValue
1.903

@<SCITEGIC>MOL_PROPERTY
Pdih
SciTegic.value.DoubleValue
4.573

@<SCITEGIC>MOL_PROPERTY
Idih
SciTegic.value.DoubleValue
0.000

@<SCITEGIC>MOL_PROPERTY
Tether
SciTegic.value.DoubleValue
0.000

@<TRIPOS>MOLECULE
guest-s15_vm2.mol2 : vm2 ligand conformer 111
          29          28           1
SMALL
USER_CHARGES
 
@<TRIPOS>ATOM
       1    C1      21.226069   19.405416   20.253888 C.3        1 MOL1        -0.2426
       2    H1      22.255453   19.783982   20.299538 H          1 MOL1         0.0959
       3    H2      21.271650   18.329559   20.040160 H          1 MOL1         0.0959
       4    H3      20.722330   19.900075   19.413182 H          1 MOL1         0.0959
       5    C2      20.486726   19.675675   21.581218 C.3        1 MOL1        -0.1410
       6    H4      20.485657   20.756297   21.780808 H          1 MOL1         0.0948
       7    H5      21.044966   19.204854   22.397801 H          1 MOL1         0.0948
       8    C3      19.030754   19.152445   21.537618 C.3        1 MOL1        -0.1435
       9    H6      18.526583   19.626377   20.684006 H          1 MOL1         0.0948
      10    H7      19.018886   18.072955   21.333825 H          1 MOL1         0.0948
      11    C4      18.208956   19.463555   22.816171 C.3        1 MOL1        -0.1435
      12    H8      17.164091   19.615765   22.511952 H          1 MOL1         0.0948
      13    H9      18.524893   20.420514   23.252153 H          1 MOL1         0.0948
      14    C5      18.212816   18.338643   23.886429 C.3        1 MOL1        -0.1435
      15    H10     17.497759   18.604164   24.676533 H          1 MOL1         0.0948
      16    H11     17.819784   17.416967   23.435700 H          1 MOL1         0.0948
      17    C6      19.587551   18.028514   24.532149 C.3        1 MOL1        -0.1500
      18    H12     20.249735   17.591516   23.774673 H          1 MOL1         0.0948
      19    H13     19.453928   17.248982   25.293861 H          1 MOL1         0.0948
      20    C7      20.270451   19.255154   25.176766 C.3        1 MOL1         0.1162
      21    H14     20.382626   20.028956   24.411821 H          1 MOL1         0.0910
      22    C8      21.669650   18.881112   25.689984 C.3        1 MOL1        -0.2491
      23    H15     22.295391   18.499838   24.873415 H          1 MOL1         0.0959
      24    H16     22.174438   19.757518   26.114803 H          1 MOL1         0.0959
      25    H17     21.613990   18.108511   26.467092 H          1 MOL1         0.0959
      26    N1      19.443026   19.855485   26.279776 N.4        1 MOL1        -0.5987
      27    H18     19.299065   19.188382   27.042463 H          1 MOL1         0.3605
      28    H19     18.520209   20.138578   25.939023 H          1 MOL1         0.3605
      29    H20     19.892990   20.684761   26.677722 H          1 MOL1         0.3605
@<TRIPOS>BOND
    1     1     2    1
    2     1     3    1
    3     1     4    1
    4     1     5    1
    5     5     6    1
    6     5     7    1
    7     5     8    1
    8     8     9    1
    9     8    10    1
   10     8    11    1
   11    11    12    1
   12    11    13    1
   13    11    14    1
   14    14    15    1
   15    14    16    1
   16    14    17    1
   17    17    18    1
   18    17    19    1
   19    17    20    1
   20    20    21    1
   21    20    22    1
   22    22    23    1
   23    22    24    1
   24    22    25    1
   25    20    26    1
   26    26    27    1
   27    26    28    1
   28    26    29    1
@<TRIPOS>SUBSTRUCTURE
       1 MOL1            1 RESIDUE      1      MOL     
@<SCITEGIC>MOL_PROPERTY
VM2 Rank
SciTegic.value.IntegerValue
111

@<SCITEGIC>MOL_PROPERTY
Conf_Id
SciTegic.value.IntegerValue
701

@<SCITEGIC>MOL_PROPERTY
Probability
SciTegic.value.DoubleValue
0.02

@<SCITEGIC>MOL_PROPERTY
Sum Probability
SciTegic.value.DoubleValue
99.50

@<SCITEGIC>MOL_PROPERTY
Delta G
SciTegic.value.DoubleValue
3.881

@<SCITEGIC>MOL_PROPERTY
G
SciTegic.value.DoubleValue
37.584

@<SCITEGIC>MOL_PROPERTY
E
SciTegic.value.DoubleValue
-0.646

@<SCITEGIC>MOL_PROPERTY
-TS
SciTegic.value.DoubleValue
38.229

@<SCITEGIC>MOL_PROPERTY
U+W
SciTegic.value.DoubleValue
-24.790

@<SCITEGIC>MOL_PROPERTY
U
SciTegic.value.DoubleValue
27.761

@<SCITEGIC>MOL_PROPERTY
W
SciTegic.value.DoubleValue
-52.551

@<SCITEGIC>MOL_PROPERTY
W(PB)
SciTegic.value.DoubleValue
-54.967

@<SCITEGIC>MOL_PROPERTY
W(SA)
SciTegic.value.DoubleValue
2.416

@<SCITEGIC>MOL_PROPERTY
Valence
SciTegic.value.DoubleValue
6.483

@<SCITEGIC>MOL_PROPERTY
Coulomb
SciTegic.value.DoubleValue
20.860

@<SCITEGIC>MOL_PROPERTY
VdW
SciTegic.value.DoubleValue
0.418

@<SCITEGIC>MOL_PROPERTY
VdW6
SciTegic.value.DoubleValue
-11.358

@<SCITEGIC>MOL_PROPERTY
VdW12
SciTegic.value.DoubleValue
11.776

@<SCITEGIC>MOL_PROPERTY
Bond
SciTegic.value.DoubleValue
0.310

@<SCITEGIC>MOL_PROPERTY
Angle
SciTegic.value.DoubleValue
2.147

@<SCITEGIC>MOL_PROPERTY
Pdih
SciTegic.value.DoubleValue
4.026

@<SCITEGIC>MOL_PROPERTY
Idih
SciTegic.value.DoubleValue
0.000

@<SCITEGIC>MOL_PROPERTY
Tether
SciTegic.value.DoubleValue
0.000

@<TRIPOS>MOLECULE
guest-s15_vm2.mol2 : vm2 ligand conformer 112
          29          28           1
SMALL
USER_CHARGES
 
@<TRIPOS>ATOM
       1    C1      18.785951   18.157340   20.104816 C.3        1 MOL1        -0.2426
       2    H1      17.777893   18.491647   20.382438 H          1 MOL1         0.0959
       3    H2      18.729262   17.718149   19.100415 H          1 MOL1         0.0959
       4    H3      19.087160   17.360583   20.796083 H          1 MOL1         0.0959
       5    C2      19.786886   19.334868   20.124048 C.3        1 MOL1        -0.1410
       6    H4      19.512969   20.044906   19.331230 H          1 MOL1         0.0948
       7    H5      20.792880   18.969167   19.875149 H          1 MOL1         0.0948
       8    C3      19.823429   20.089530   21.474836 C.3        1 MOL1        -0.1435
       9    H6      20.468807   20.971842   21.364010 H          1 MOL1         0.0948
      10    H7      18.819287   20.468463   21.709964 H          1 MOL1         0.0948
      11    C4      20.343748   19.226709   22.649217 C.3        1 MOL1        -0.1435
      12    H8      21.327734   18.813201   22.388859 H          1 MOL1         0.0948
      13    H9      19.674804   18.373150   22.802076 H          1 MOL1         0.0948
      14    C5      20.461871   20.050300   23.955094 C.3        1 MOL1        -0.1435
      15    H10     21.166868   20.873695   23.775148 H          1 MOL1         0.0948
      16    H11     19.500600   20.523990   24.192559 H          1 MOL1         0.0948
      17    C6      20.978795   19.222568   25.164904 C.3        1 MOL1        -0.1500
      18    H12     21.619781   19.870803   25.776822 H          1 MOL1         0.0948
      19    H13     21.636049   18.416571   24.812866 H          1 MOL1         0.0948
      20    C7      19.893480   18.630258   26.097980 C.3        1 MOL1         0.1162
      21    H14     20.414377   18.074267   26.883641 H          1 MOL1         0.0910
      22    C8      18.957251   17.645461   25.379307 C.3        1 MOL1        -0.2491
      23    H15     18.309843   17.135460   26.103098 H          1 MOL1         0.0959
      24    H16     18.310706   18.159321   24.658054 H          1 MOL1         0.0959
      25    H17     19.532236   16.876852   24.848227 H          1 MOL1         0.0959
      26    N1      19.104589   19.698967   26.803798 N.4        1 MOL1        -0.5987
      27    H18     19.714950   20.328832   27.332398 H          1 MOL1         0.3605
      28    H19     18.435807   19.294399   27.465369 H          1 MOL1         0.3605
      29    H20     18.574064   20.268952   26.140486 H          1 MOL1         0.3605
@<TRIPOS>BOND
    1     1     2    1
    2     1     3    1
    3     1     4    1
    4     1     5    1
    5     5     6    1
    6     5     7    1
    7     5     8    1
    8     8     9    1
    9     8    10    1
   10     8    11    1
   11    11    12    1
   12    11    13    1
   13    11    14    1
   14    14    15    1
   15    14    16    1
   16    14    17    1
   17    17    18    1
   18    17    19    1
   19    17    20    1
   20    20    21    1
   21    20    22    1
   22    22    23    1
   23    22    24    1
   24    22    25    1
   25    20    26    1
   26    26    27    1
   27    26    28    1
   28    26    29    1
@<TRIPOS>SUBSTRUCTURE
       1 MOL1            1 RESIDUE      1      MOL     
@<SCITEGIC>MOL_PROPERTY
VM2 Rank
SciTegic.value.IntegerValue
112

@<SCITEGIC>MOL_PROPERTY
Conf_Id
SciTegic.value.IntegerValue
1593

@<SCITEGIC>MOL_PROPERTY
Probability
SciTegic.value.DoubleValue
0.02

@<SCITEGIC>MOL_PROPERTY
Sum Probability
SciTegic.value.DoubleValue
99.52

@<SCITEGIC>MOL_PROPERTY
Delta G
SciTegic.value.DoubleValue
3.888

@<SCITEGIC>MOL_PROPERTY
G
SciTegic.value.DoubleValue
37.590

@<SCITEGIC>MOL_PROPERTY
E
SciTegic.value.DoubleValue
-0.269

@<SCITEGIC>MOL_PROPERTY
-TS
SciTegic.value.DoubleValue
37.860

@<SCITEGIC>MOL_PROPERTY
U+W
SciTegic.value.DoubleValue
-24.414

@<SCITEGIC>MOL_PROPERTY
U
SciTegic.value.DoubleValue
27.944

@<SCITEGIC>MOL_PROPERTY
W
SciTegic.value.DoubleValue
-52.358

@<SCITEGIC>MOL_PROPERTY
W(PB)
SciTegic.value.DoubleValue
-54.791

@<SCITEGIC>MOL_PROPERTY
W(SA)
SciTegic.value.DoubleValue
2.433

@<SCITEGIC>MOL_PROPERTY
Valence
SciTegic.value.DoubleValue
6.749

@<SCITEGIC>MOL_PROPERTY
Coulomb
SciTegic.value.DoubleValue
19.998

@<SCITEGIC>MOL_PROPERTY
VdW
SciTegic.value.DoubleValue
1.197

@<SCITEGIC>MOL_PROPERTY
VdW6
SciTegic.value.DoubleValue
-10.230

@<SCITEGIC>MOL_PROPERTY
VdW12
SciTegic.value.DoubleValue
11.427

@<SCITEGIC>MOL_PROPERTY
Bond
SciTegic.value.DoubleValue
0.319

@<SCITEGIC>MOL_PROPERTY
Angle
SciTegic.value.DoubleValue
2.020

@<SCITEGIC>MOL_PROPERTY
Pdih
SciTegic.value.DoubleValue
4.410

@<SCITEGIC>MOL_PROPERTY
Idih
SciTegic.value.DoubleValue
0.000

@<SCITEGIC>MOL_PROPERTY
Tether
SciTegic.value.DoubleValue
0.000

@<TRIPOS>MOLECULE
guest-s15_vm2.mol2 : vm2 ligand conformer 113
          29          28           1
SMALL
USER_CHARGES
 
@<TRIPOS>ATOM
       1    C1      18.715239   19.457158   19.517763 C.3        1 MOL1        -0.2426
       2    H1      19.228979   20.360045   19.162639 H          1 MOL1         0.0959
       3    H2      19.059357   18.607736   18.913373 H          1 MOL1         0.0959
       4    H3      17.640568   19.586852   19.335315 H          1 MOL1         0.0959
       5    C2      18.988312   19.218121   21.017823 C.3        1 MOL1        -0.1410
       6    H4      18.438835   18.326361   21.350206 H          1 MOL1         0.0948
       7    H5      18.593933   20.067617   21.590614 H          1 MOL1         0.0948
       8    C3      20.498503   19.036671   21.299953 C.3        1 MOL1        -0.1435
       9    H6      20.886955   18.235557   20.656035 H          1 MOL1         0.0948
      10    H7      21.041491   19.949162   21.017612 H          1 MOL1         0.0948
      11    C4      20.813784   18.677257   22.772548 C.3        1 MOL1        -0.1435
      12    H8      21.882827   18.434885   22.846598 H          1 MOL1         0.0948
      13    H9      20.275217   17.761201   23.041935 H          1 MOL1         0.0948
      14    C5      20.489512   19.820120   23.769480 C.3        1 MOL1        -0.1435
      15    H10     21.036144   20.716701   23.446171 H          1 MOL1         0.0948
      16    H11     19.426153   20.083584   23.726397 H          1 MOL1         0.0948
      17    C6      20.903671   19.499902   25.233159 C.3        1 MOL1        -0.1500
      18    H12     21.250099   20.429376   25.703879 H          1 MOL1         0.0948
      19    H13     21.775288   18.832331   25.238362 H          1 MOL1         0.0948
      20    C7      19.797059   18.906081   26.139913 C.3        1 MOL1         0.1162
      21    H14     20.248982   18.723899   27.119859 H          1 MOL1         0.0910
      22    C8      19.255995   17.562897   25.624499 C.3        1 MOL1        -0.2491
      23    H15     20.075975   16.861642   25.426294 H          1 MOL1         0.0959
      24    H16     18.598523   17.103004   26.372386 H          1 MOL1         0.0959
      25    H17     18.674683   17.690879   24.703717 H          1 MOL1         0.0959
      26    N1      18.673924   19.877793   26.378862 N.4        1 MOL1        -0.5987
      27    H18     19.016737   20.757636   26.775182 H          1 MOL1         0.3605
      28    H19     17.983070   19.496919   27.031783 H          1 MOL1         0.3605
      29    H20     18.184138   20.101538   25.509219 H          1 MOL1         0.3605
@<TRIPOS>BOND
    1     1     2    1
    2     1     3    1
    3     1     4    1
    4     1     5    1
    5     5     6    1
    6     5     7    1
    7     5     8    1
    8     8     9    1
    9     8    10    1
   10     8    11    1
   11    11    12    1
   12    11    13    1
   13    11    14    1
   14    14    15    1
   15    14    16    1
   16    14    17    1
   17    17    18    1
   18    17    19    1
   19    17    20    1
   20    20    21    1
   21    20    22    1
   22    22    23    1
   23    22    24    1
   24    22    25    1
   25    20    26    1
   26    26    27    1
   27    26    28    1
   28    26    29    1
@<TRIPOS>SUBSTRUCTURE
       1 MOL1            1 RESIDUE      1      MOL     
@<SCITEGIC>MOL_PROPERTY
VM2 Rank
SciTegic.value.IntegerValue
113

@<SCITEGIC>MOL_PROPERTY
Conf_Id
SciTegic.value.IntegerValue
1594

@<SCITEGIC>MOL_PROPERTY
Probability
SciTegic.value.DoubleValue
0.02

@<SCITEGIC>MOL_PROPERTY
Sum Probability
SciTegic.value.DoubleValue
99.53

@<SCITEGIC>MOL_PROPERTY
Delta G
SciTegic.value.DoubleValue
3.896

@<SCITEGIC>MOL_PROPERTY
G
SciTegic.value.DoubleValue
37.598

@<SCITEGIC>MOL_PROPERTY
E
SciTegic.value.DoubleValue
-0.199

@<SCITEGIC>MOL_PROPERTY
-TS
SciTegic.value.DoubleValue
37.797

@<SCITEGIC>MOL_PROPERTY
U+W
SciTegic.value.DoubleValue
-24.344

@<SCITEGIC>MOL_PROPERTY
U
SciTegic.value.DoubleValue
28.333

@<SCITEGIC>MOL_PROPERTY
W
SciTegic.value.DoubleValue
-52.677

@<SCITEGIC>MOL_PROPERTY
W(PB)
SciTegic.value.DoubleValue
-55.100

@<SCITEGIC>MOL_PROPERTY
W(SA)
SciTegic.value.DoubleValue
2.423

@<SCITEGIC>MOL_PROPERTY
Valence
SciTegic.value.DoubleValue
6.776

@<SCITEGIC>MOL_PROPERTY
Coulomb
SciTegic.value.DoubleValue
20.398

@<SCITEGIC>MOL_PROPERTY
VdW
SciTegic.value.DoubleValue
1.160

@<SCITEGIC>MOL_PROPERTY
VdW6
SciTegic.value.DoubleValue
-10.290

@<SCITEGIC>MOL_PROPERTY
VdW12
SciTegic.value.DoubleValue
11.450

@<SCITEGIC>MOL_PROPERTY
Bond
SciTegic.value.DoubleValue
0.329

@<SCITEGIC>MOL_PROPERTY
Angle
SciTegic.value.DoubleValue
2.071

@<SCITEGIC>MOL_PROPERTY
Pdih
SciTegic.value.DoubleValue
4.376

@<SCITEGIC>MOL_PROPERTY
Idih
SciTegic.value.DoubleValue
0.000

@<SCITEGIC>MOL_PROPERTY
Tether
SciTegic.value.DoubleValue
0.000

@<TRIPOS>MOLECULE
guest-s15_vm2.mol2 : vm2 ligand conformer 114
          29          28           1
SMALL
USER_CHARGES
 
@<TRIPOS>ATOM
       1    C1      19.298703   18.338475   20.052330 C.3        1 MOL1        -0.2426
       2    H1      19.603157   17.589180   20.793473 H          1 MOL1         0.0959
       3    H2      18.230271   18.550756   20.187327 H          1 MOL1         0.0959
       4    H3      19.429181   17.889410   19.059268 H          1 MOL1         0.0959
       5    C2      20.142371   19.625758   20.177359 C.3        1 MOL1        -0.1410
       6    H4      19.916767   20.279195   19.323057 H          1 MOL1         0.0948
       7    H5      21.208349   19.372170   20.093233 H          1 MOL1         0.0948
       8    C3      19.900081   20.423247   21.484204 C.3        1 MOL1        -0.1435
       9    H6      20.511614   21.334721   21.432876 H          1 MOL1         0.0948
      10    H7      18.857914   20.768257   21.528504 H          1 MOL1         0.0948
      11    C4      20.272430   19.663772   22.784070 C.3        1 MOL1        -0.1435
      12    H8      20.698154   20.387524   23.491610 H          1 MOL1         0.0948
      13    H9      21.068401   18.935003   22.578108 H          1 MOL1         0.0948
      14    C5      19.061158   18.966008   23.454571 C.3        1 MOL1        -0.1435
      15    H10     18.314499   19.718434   23.741076 H          1 MOL1         0.0948
      16    H11     18.559860   18.310584   22.732631 H          1 MOL1         0.0948
      17    C6      19.455677   18.116104   24.689448 C.3        1 MOL1        -0.1500
      18    H12     20.123014   17.307782   24.361986 H          1 MOL1         0.0948
      19    H13     18.557192   17.628177   25.090070 H          1 MOL1         0.0948
      20    C7      20.148393   18.915365   25.815780 C.3        1 MOL1         0.1162
      21    H14     21.049932   19.379489   25.405182 H          1 MOL1         0.0910
      22    C8      20.570448   17.976084   26.956544 C.3        1 MOL1        -0.2491
      23    H15     21.248452   17.196110   26.588180 H          1 MOL1         0.0959
      24    H16     21.097627   18.531662   27.741908 H          1 MOL1         0.0959
      25    H17     19.699885   17.485880   27.410120 H          1 MOL1         0.0959
      26    N1      19.286738   20.031187   26.339693 N.4        1 MOL1        -0.5987
      27    H18     19.029727   20.682985   25.593364 H          1 MOL1         0.3605
      28    H19     19.769362   20.568313   27.065734 H          1 MOL1         0.3605
      29    H20     18.419895   19.671904   26.748282 H          1 MOL1         0.3605
@<TRIPOS>BOND
    1     1     2    1
    2     1     3    1
    3     1     4    1
    4     1     5    1
    5     5     6    1
    6     5     7    1
    7     5     8    1
    8     8     9    1
    9     8    10    1
   10     8    11    1
   11    11    12    1
   12    11    13    1
   13    11    14    1
   14    14    15    1
   15    14    16    1
   16    14    17    1
   17    17    18    1
   18    17    19    1
   19    17    20    1
   20    20    21    1
   21    20    22    1
   22    22    23    1
   23    22    24    1
   24    22    25    1
   25    20    26    1
   26    26    27    1
   27    26    28    1
   28    26    29    1
@<TRIPOS>SUBSTRUCTURE
       1 MOL1            1 RESIDUE      1      MOL     
@<SCITEGIC>MOL_PROPERTY
VM2 Rank
SciTegic.value.IntegerValue
114

@<SCITEGIC>MOL_PROPERTY
Conf_Id
SciTegic.value.IntegerValue
1022

@<SCITEGIC>MOL_PROPERTY
Probability
SciTegic.value.DoubleValue
0.02

@<SCITEGIC>MOL_PROPERTY
Sum Probability
SciTegic.value.DoubleValue
99.55

@<SCITEGIC>MOL_PROPERTY
Delta G
SciTegic.value.DoubleValue
3.896

@<SCITEGIC>MOL_PROPERTY
G
SciTegic.value.DoubleValue
37.599

@<SCITEGIC>MOL_PROPERTY
E
SciTegic.value.DoubleValue
-0.364

@<SCITEGIC>MOL_PROPERTY
-TS
SciTegic.value.DoubleValue
37.963

@<SCITEGIC>MOL_PROPERTY
U+W
SciTegic.value.DoubleValue
-24.508

@<SCITEGIC>MOL_PROPERTY
U
SciTegic.value.DoubleValue
27.887

@<SCITEGIC>MOL_PROPERTY
W
SciTegic.value.DoubleValue
-52.395

@<SCITEGIC>MOL_PROPERTY
W(PB)
SciTegic.value.DoubleValue
-54.858

@<SCITEGIC>MOL_PROPERTY
W(SA)
SciTegic.value.DoubleValue
2.462

@<SCITEGIC>MOL_PROPERTY
Valence
SciTegic.value.DoubleValue
6.471

@<SCITEGIC>MOL_PROPERTY
Coulomb
SciTegic.value.DoubleValue
20.362

@<SCITEGIC>MOL_PROPERTY
VdW
SciTegic.value.DoubleValue
1.054

@<SCITEGIC>MOL_PROPERTY
VdW6
SciTegic.value.DoubleValue
-10.398

@<SCITEGIC>MOL_PROPERTY
VdW12
SciTegic.value.DoubleValue
11.452

@<SCITEGIC>MOL_PROPERTY
Bond
SciTegic.value.DoubleValue
0.305

@<SCITEGIC>MOL_PROPERTY
Angle
SciTegic.value.DoubleValue
1.802

@<SCITEGIC>MOL_PROPERTY
Pdih
SciTegic.value.DoubleValue
4.364

@<SCITEGIC>MOL_PROPERTY
Idih
SciTegic.value.DoubleValue
0.000

@<SCITEGIC>MOL_PROPERTY
Tether
SciTegic.value.DoubleValue
0.000

@<TRIPOS>MOLECULE
guest-s15_vm2.mol2 : vm2 ligand conformer 115
          29          28           1
SMALL
USER_CHARGES
 
@<TRIPOS>ATOM
       1    C1      20.580567   18.268625   19.801080 C.3        1 MOL1        -0.2426
       2    H1      20.479637   18.994287   18.983496 H          1 MOL1         0.0959
       3    H2      21.581087   17.822112   19.733329 H          1 MOL1         0.0959
       4    H3      19.843614   17.470421   19.642936 H          1 MOL1         0.0959
       5    C2      20.378049   18.945969   21.172932 C.3        1 MOL1        -0.1410
       6    H4      21.144797   19.720399   21.313678 H          1 MOL1         0.0948
       7    H5      20.523880   18.196571   21.962049 H          1 MOL1         0.0948
       8    C3      18.970966   19.573672   21.296591 C.3        1 MOL1        -0.1435
       9    H6      18.796149   20.230483   20.433283 H          1 MOL1         0.0948
      10    H7      18.212178   18.781373   21.235695 H          1 MOL1         0.0948
      11    C4      18.748752   20.400567   22.589417 C.3        1 MOL1        -0.1435
      12    H8      17.735511   20.822944   22.540901 H          1 MOL1         0.0948
      13    H9      19.427902   21.264035   22.606638 H          1 MOL1         0.0948
      14    C5      18.872292   19.589564   23.905680 C.3        1 MOL1        -0.1435
      15    H10     18.123468   19.969964   24.612949 H          1 MOL1         0.0948
      16    H11     18.608164   18.541207   23.716496 H          1 MOL1         0.0948
      17    C6      20.276024   19.703048   24.562788 C.3        1 MOL1        -0.1500
      18    H12     20.479925   20.758669   24.784959 H          1 MOL1         0.0948
      19    H13     21.053580   19.394757   23.855063 H          1 MOL1         0.0948
      20    C7      20.450927   18.889877   25.866881 C.3        1 MOL1         0.1162
      21    H14     21.451274   19.107750   26.253662 H          1 MOL1         0.0910
      22    C8      20.370811   17.373797   25.616429 C.3        1 MOL1        -0.2491
      23    H15     19.362588   17.063478   25.317973 H          1 MOL1         0.0959
      24    H16     21.071380   17.071030   24.828332 H          1 MOL1         0.0959
      25    H17     20.635108   16.820896   26.526174 H          1 MOL1         0.0959
      26    N1      19.487611   19.310881   26.942202 N.4        1 MOL1        -0.5987
      27    H18     19.658344   18.805465   27.816280 H          1 MOL1         0.3605
      28    H19     18.519935   19.127774   26.665348 H          1 MOL1         0.3605
      29    H20     19.566637   20.311286   27.146204 H          1 MOL1         0.3605
@<TRIPOS>BOND
    1     1     2    1
    2     1     3    1
    3     1     4    1
    4     1     5    1
    5     5     6    1
    6     5     7    1
    7     5     8    1
    8     8     9    1
    9     8    10    1
   10     8    11    1
   11    11    12    1
   12    11    13    1
   13    11    14    1
   14    14    15    1
   15    14    16    1
   16    14    17    1
   17    17    18    1
   18    17    19    1
   19    17    20    1
   20    20    21    1
   21    20    22    1
   22    22    23    1
   23    22    24    1
   24    22    25    1
   25    20    26    1
   26    26    27    1
   27    26    28    1
   28    26    29    1
@<TRIPOS>SUBSTRUCTURE
       1 MOL1            1 RESIDUE      1      MOL     
@<SCITEGIC>MOL_PROPERTY
VM2 Rank
SciTegic.value.IntegerValue
115

@<SCITEGIC>MOL_PROPERTY
Conf_Id
SciTegic.value.IntegerValue
1261

@<SCITEGIC>MOL_PROPERTY
Probability
SciTegic.value.DoubleValue
0.01

@<SCITEGIC>MOL_PROPERTY
Sum Probability
SciTegic.value.DoubleValue
99.56

@<SCITEGIC>MOL_PROPERTY
Delta G
SciTegic.value.DoubleValue
3.902

@<SCITEGIC>MOL_PROPERTY
G
SciTegic.value.DoubleValue
37.604

@<SCITEGIC>MOL_PROPERTY
E
SciTegic.value.DoubleValue
-0.305

@<SCITEGIC>MOL_PROPERTY
-TS
SciTegic.value.DoubleValue
37.909

@<SCITEGIC>MOL_PROPERTY
U+W
SciTegic.value.DoubleValue
-24.450

@<SCITEGIC>MOL_PROPERTY
U
SciTegic.value.DoubleValue
27.947

@<SCITEGIC>MOL_PROPERTY
W
SciTegic.value.DoubleValue
-52.397

@<SCITEGIC>MOL_PROPERTY
W(PB)
SciTegic.value.DoubleValue
-54.843

@<SCITEGIC>MOL_PROPERTY
W(SA)
SciTegic.value.DoubleValue
2.447

@<SCITEGIC>MOL_PROPERTY
Valence
SciTegic.value.DoubleValue
6.732

@<SCITEGIC>MOL_PROPERTY
Coulomb
SciTegic.value.DoubleValue
20.067

@<SCITEGIC>MOL_PROPERTY
VdW
SciTegic.value.DoubleValue
1.149

@<SCITEGIC>MOL_PROPERTY
VdW6
SciTegic.value.DoubleValue
-10.427

@<SCITEGIC>MOL_PROPERTY
VdW12
SciTegic.value.DoubleValue
11.576

@<SCITEGIC>MOL_PROPERTY
Bond
SciTegic.value.DoubleValue
0.324

@<SCITEGIC>MOL_PROPERTY
Angle
SciTegic.value.DoubleValue
1.943

@<SCITEGIC>MOL_PROPERTY
Pdih
SciTegic.value.DoubleValue
4.465

@<SCITEGIC>MOL_PROPERTY
Idih
SciTegic.value.DoubleValue
0.000

@<SCITEGIC>MOL_PROPERTY
Tether
SciTegic.value.DoubleValue
0.000

@<TRIPOS>MOLECULE
guest-s15_vm2.mol2 : vm2 ligand conformer 116
          29          28           1
SMALL
USER_CHARGES
 
@<TRIPOS>ATOM
       1    C1      19.014740   20.800472   20.325732 C.3        1 MOL1        -0.2426
       2    H1      18.369439   21.159888   19.513727 H          1 MOL1         0.0959
       3    H2      18.507045   21.022859   21.272254 H          1 MOL1         0.0959
       4    H3      19.948837   21.376114   20.291781 H          1 MOL1         0.0959
       5    C2      19.288346   19.287440   20.168724 C.3        1 MOL1        -0.1410
       6    H4      19.677335   19.101653   19.157813 H          1 MOL1         0.0948
       7    H5      18.343242   18.731335   20.241232 H          1 MOL1         0.0948
       8    C3      20.302029   18.733959   21.199165 C.3        1 MOL1        -0.1435
       9    H6      20.520568   17.687898   20.943683 H          1 MOL1         0.0948
      10    H7      21.251752   19.279141   21.109061 H          1 MOL1         0.0948
      11    C4      19.796439   18.804085   22.660015 C.3        1 MOL1        -0.1435
      12    H8      18.826441   18.293488   22.734823 H          1 MOL1         0.0948
      13    H9      19.642038   19.854178   22.931982 H          1 MOL1         0.0948
      14    C5      20.802453   18.160521   23.643876 C.3        1 MOL1        -0.1435
      15    H10     21.084130   17.168747   23.263869 H          1 MOL1         0.0948
      16    H11     21.727290   18.753689   23.660953 H          1 MOL1         0.0948
      17    C6      20.276025   17.982939   25.092541 C.3        1 MOL1        -0.1500
      18    H12     21.044405   17.429007   25.648299 H          1 MOL1         0.0948
      19    H13     19.384597   17.341855   25.095547 H          1 MOL1         0.0948
      20    C7      19.978822   19.303049   25.842615 C.3        1 MOL1         0.1162
      21    H14     20.754008   20.030348   25.582489 H          1 MOL1         0.0910
      22    C8      20.021616   19.076745   27.362898 C.3        1 MOL1        -0.2491
      23    H15     19.271026   18.339934   27.675573 H          1 MOL1         0.0959
      24    H16     21.008467   18.714081   27.676577 H          1 MOL1         0.0959
      25    H17     19.827089   20.012814   27.900881 H          1 MOL1         0.0959
      26    N1      18.655529   19.906792   25.458434 N.4        1 MOL1        -0.5987
      27    H18     17.879108   19.289966   25.712085 H          1 MOL1         0.3605
      28    H19     18.599407   20.074378   24.451307 H          1 MOL1         0.3605
      29    H20     18.502035   20.802222   25.931191 H          1 MOL1         0.3605
@<TRIPOS>BOND
    1     1     2    1
    2     1     3    1
    3     1     4    1
    4     1     5    1
    5     5     6    1
    6     5     7    1
    7     5     8    1
    8     8     9    1
    9     8    10    1
   10     8    11    1
   11    11    12    1
   12    11    13    1
   13    11    14    1
   14    14    15    1
   15    14    16    1
   16    14    17    1
   17    17    18    1
   18    17    19    1
   19    17    20    1
   20    20    21    1
   21    20    22    1
   22    22    23    1
   23    22    24    1
   24    22    25    1
   25    20    26    1
   26    26    27    1
   27    26    28    1
   28    26    29    1
@<TRIPOS>SUBSTRUCTURE
       1 MOL1            1 RESIDUE      1      MOL     
@<SCITEGIC>MOL_PROPERTY
VM2 Rank
SciTegic.value.IntegerValue
116

@<SCITEGIC>MOL_PROPERTY
Conf_Id
SciTegic.value.IntegerValue
1633

@<SCITEGIC>MOL_PROPERTY
Probability
SciTegic.value.DoubleValue
0.01

@<SCITEGIC>MOL_PROPERTY
Sum Probability
SciTegic.value.DoubleValue
99.57

@<SCITEGIC>MOL_PROPERTY
Delta G
SciTegic.value.DoubleValue
3.943

@<SCITEGIC>MOL_PROPERTY
G
SciTegic.value.DoubleValue
37.645

@<SCITEGIC>MOL_PROPERTY
E
SciTegic.value.DoubleValue
0.132

@<SCITEGIC>MOL_PROPERTY
-TS
SciTegic.value.DoubleValue
37.513

@<SCITEGIC>MOL_PROPERTY
U+W
SciTegic.value.DoubleValue
-24.012

@<SCITEGIC>MOL_PROPERTY
U
SciTegic.value.DoubleValue
27.949

@<SCITEGIC>MOL_PROPERTY
W
SciTegic.value.DoubleValue
-51.962

@<SCITEGIC>MOL_PROPERTY
W(PB)
SciTegic.value.DoubleValue
-54.443

@<SCITEGIC>MOL_PROPERTY
W(SA)
SciTegic.value.DoubleValue
2.482

@<SCITEGIC>MOL_PROPERTY
Valence
SciTegic.value.DoubleValue
5.463

@<SCITEGIC>MOL_PROPERTY
Coulomb
SciTegic.value.DoubleValue
21.337

@<SCITEGIC>MOL_PROPERTY
VdW
SciTegic.value.DoubleValue
1.149

@<SCITEGIC>MOL_PROPERTY
VdW6
SciTegic.value.DoubleValue
-9.730

@<SCITEGIC>MOL_PROPERTY
VdW12
SciTegic.value.DoubleValue
10.879

@<SCITEGIC>MOL_PROPERTY
Bond
SciTegic.value.DoubleValue
0.280

@<SCITEGIC>MOL_PROPERTY
Angle
SciTegic.value.DoubleValue
1.828

@<SCITEGIC>MOL_PROPERTY
Pdih
SciTegic.value.DoubleValue
3.355

@<SCITEGIC>MOL_PROPERTY
Idih
SciTegic.value.DoubleValue
0.000

@<SCITEGIC>MOL_PROPERTY
Tether
SciTegic.value.DoubleValue
0.000

@<TRIPOS>MOLECULE
guest-s15_vm2.mol2 : vm2 ligand conformer 117
          29          28           1
SMALL
USER_CHARGES
 
@<TRIPOS>ATOM
       1    C1      18.628373   20.271098   19.984354 C.3        1 MOL1        -0.2426
       2    H1      17.566510   20.182889   19.720369 H          1 MOL1         0.0959
       3    H2      18.781389   21.257608   20.441063 H          1 MOL1         0.0959
       4    H3      19.211273   20.230328   19.054946 H          1 MOL1         0.0959
       5    C2      19.045251   19.142453   20.950730 C.3        1 MOL1        -0.1410
       6    H4      18.847516   18.170158   20.478193 H          1 MOL1         0.0948
       7    H5      18.415539   19.185504   21.847634 H          1 MOL1         0.0948
       8    C3      20.543372   19.238793   21.327565 C.3        1 MOL1        -0.1435
       9    H6      21.133736   19.143223   20.405745 H          1 MOL1         0.0948
      10    H7      20.774718   20.233507   21.732631 H          1 MOL1         0.0948
      11    C4      20.999686   18.137999   22.320342 C.3        1 MOL1        -0.1435
      12    H8      22.013262   17.821583   22.037517 H          1 MOL1         0.0948
      13    H9      20.371006   17.243306   22.213092 H          1 MOL1         0.0948
      14    C5      21.046864   18.580002   23.806090 C.3        1 MOL1        -0.1435
      15    H10     21.448331   17.741678   24.389058 H          1 MOL1         0.0948
      16    H11     21.765446   19.403638   23.918091 H          1 MOL1         0.0948
      17    C6      19.676226   19.012572   24.385917 C.3        1 MOL1        -0.1500
      18    H12     18.938771   18.212822   24.237133 H          1 MOL1         0.0948
      19    H13     19.318724   19.883645   23.823718 H          1 MOL1         0.0948
      20    C7      19.726460   19.403742   25.880829 C.3        1 MOL1         0.1162
      21    H14     20.521681   20.143288   26.016150 H          1 MOL1         0.0910
      22    C8      20.020505   18.196843   26.790212 C.3        1 MOL1        -0.2491
      23    H15     19.283749   17.397915   26.639860 H          1 MOL1         0.0959
      24    H16     21.018005   17.784955   26.600188 H          1 MOL1         0.0959
      25    H17     19.989558   18.492822   27.846057 H          1 MOL1         0.0959
      26    N1      18.449263   20.072498   26.307961 N.4        1 MOL1        -0.5987
      27    H18     18.491894   20.368189   27.287496 H          1 MOL1         0.3605
      28    H19     17.647860   19.442708   26.213753 H          1 MOL1         0.3605
      29    H20     18.253858   20.906425   25.746529 H          1 MOL1         0.3605
@<TRIPOS>BOND
    1     1     2    1
    2     1     3    1
    3     1     4    1
    4     1     5    1
    5     5     6    1
    6     5     7    1
    7     5     8    1
    8     8     9    1
    9     8    10    1
   10     8    11    1
   11    11    12    1
   12    11    13    1
   13    11    14    1
   14    14    15    1
   15    14    16    1
   16    14    17    1
   17    17    18    1
   18    17    19    1
   19    17    20    1
   20    20    21    1
   21    20    22    1
   22    22    23    1
   23    22    24    1
   24    22    25    1
   25    20    26    1
   26    26    27    1
   27    26    28    1
   28    26    29    1
@<TRIPOS>SUBSTRUCTURE
       1 MOL1            1 RESIDUE      1      MOL     
@<SCITEGIC>MOL_PROPERTY
VM2 Rank
SciTegic.value.IntegerValue
117

@<SCITEGIC>MOL_PROPERTY
Conf_Id
SciTegic.value.IntegerValue
1019

@<SCITEGIC>MOL_PROPERTY
Probability
SciTegic.value.DoubleValue
0.01

@<SCITEGIC>MOL_PROPERTY
Sum Probability
SciTegic.value.DoubleValue
99.59

@<SCITEGIC>MOL_PROPERTY
Delta G
SciTegic.value.DoubleValue
3.964

@<SCITEGIC>MOL_PROPERTY
G
SciTegic.value.DoubleValue
37.667

@<SCITEGIC>MOL_PROPERTY
E
SciTegic.value.DoubleValue
-0.061

@<SCITEGIC>MOL_PROPERTY
-TS
SciTegic.value.DoubleValue
37.727

@<SCITEGIC>MOL_PROPERTY
U+W
SciTegic.value.DoubleValue
-24.205

@<SCITEGIC>MOL_PROPERTY
U
SciTegic.value.DoubleValue
28.399

@<SCITEGIC>MOL_PROPERTY
W
SciTegic.value.DoubleValue
-52.604

@<SCITEGIC>MOL_PROPERTY
W(PB)
SciTegic.value.DoubleValue
-55.069

@<SCITEGIC>MOL_PROPERTY
W(SA)
SciTegic.value.DoubleValue
2.464

@<SCITEGIC>MOL_PROPERTY
Valence
SciTegic.value.DoubleValue
6.895

@<SCITEGIC>MOL_PROPERTY
Coulomb
SciTegic.value.DoubleValue
20.214

@<SCITEGIC>MOL_PROPERTY
VdW
SciTegic.value.DoubleValue
1.290

@<SCITEGIC>MOL_PROPERTY
VdW6
SciTegic.value.DoubleValue
-9.762

@<SCITEGIC>MOL_PROPERTY
VdW12
SciTegic.value.DoubleValue
11.052

@<SCITEGIC>MOL_PROPERTY
Bond
SciTegic.value.DoubleValue
0.294

@<SCITEGIC>MOL_PROPERTY
Angle
SciTegic.value.DoubleValue
1.988

@<SCITEGIC>MOL_PROPERTY
Pdih
SciTegic.value.DoubleValue
4.614

@<SCITEGIC>MOL_PROPERTY
Idih
SciTegic.value.DoubleValue
0.000

@<SCITEGIC>MOL_PROPERTY
Tether
SciTegic.value.DoubleValue
0.000

@<TRIPOS>MOLECULE
guest-s15_vm2.mol2 : vm2 ligand conformer 118
          29          28           1
SMALL
USER_CHARGES
 
@<TRIPOS>ATOM
       1    C1      20.460170   18.804263   19.572624 C.3        1 MOL1        -0.2426
       2    H1      20.725629   19.833821   19.299555 H          1 MOL1         0.0959
       3    H2      21.261057   18.397663   20.202476 H          1 MOL1         0.0959
       4    H3      20.431359   18.209128   18.650720 H          1 MOL1         0.0959
       5    C2      19.092637   18.755031   20.290883 C.3        1 MOL1        -0.1410
       6    H4      18.864501   17.719804   20.580657 H          1 MOL1         0.0948
       7    H5      18.309086   19.055482   19.581290 H          1 MOL1         0.0948
       8    C3      19.016639   19.675178   21.533072 C.3        1 MOL1        -0.1435
       9    H6      19.222509   20.712300   21.234391 H          1 MOL1         0.0948
      10    H7      17.986039   19.661701   21.913744 H          1 MOL1         0.0948
      11    C4      19.980358   19.257622   22.669458 C.3        1 MOL1        -0.1435
      12    H8      21.018900   19.339104   22.323079 H          1 MOL1         0.0948
      13    H9      19.812128   18.202489   22.914348 H          1 MOL1         0.0948
      14    C5      19.798288   20.142602   23.927047 C.3        1 MOL1        -0.1435
      15    H10     19.994690   21.184713   23.639190 H          1 MOL1         0.0948
      16    H11     18.753662   20.115356   24.262865 H          1 MOL1         0.0948
      17    C6      20.757933   19.770542   25.091857 C.3        1 MOL1        -0.1500
      18    H12     21.049046   20.695656   25.606571 H          1 MOL1         0.0948
      19    H13     21.692547   19.358377   24.689205 H          1 MOL1         0.0948
      20    C7      20.189201   18.805054   26.161251 C.3        1 MOL1         0.1162
      21    H14     20.982279   18.637774   26.896618 H          1 MOL1         0.0910
      22    C8      19.798414   17.434836   25.584726 C.3        1 MOL1        -0.2491
      23    H15     18.920946   17.509437   24.931534 H          1 MOL1         0.0959
      24    H16     20.626712   17.002196   25.010122 H          1 MOL1         0.0959
      25    H17     19.553507   16.735277   26.393274 H          1 MOL1         0.0959
      26    N1      19.042360   19.410872   26.923084 N.4        1 MOL1        -0.5987
      27    H18     19.308329   20.298569   27.358907 H          1 MOL1         0.3605
      28    H19     18.719008   18.788473   27.669197 H          1 MOL1         0.3605
      29    H20     18.244753   19.595573   26.309863 H          1 MOL1         0.3605
@<TRIPOS>BOND
    1     1     2    1
    2     1     3    1
    3     1     4    1
    4     1     5    1
    5     5     6    1
    6     5     7    1
    7     5     8    1
    8     8     9    1
    9     8    10    1
   10     8    11    1
   11    11    12    1
   12    11    13    1
   13    11    14    1
   14    14    15    1
   15    14    16    1
   16    14    17    1
   17    17    18    1
   18    17    19    1
   19    17    20    1
   20    20    21    1
   21    20    22    1
   22    22    23    1
   23    22    24    1
   24    22    25    1
   25    20    26    1
   26    26    27    1
   27    26    28    1
   28    26    29    1
@<TRIPOS>SUBSTRUCTURE
       1 MOL1            1 RESIDUE      1      MOL     
@<SCITEGIC>MOL_PROPERTY
VM2 Rank
SciTegic.value.IntegerValue
118

@<SCITEGIC>MOL_PROPERTY
Conf_Id
SciTegic.value.IntegerValue
221

@<SCITEGIC>MOL_PROPERTY
Probability
SciTegic.value.DoubleValue
0.01

@<SCITEGIC>MOL_PROPERTY
Sum Probability
SciTegic.value.DoubleValue
99.60

@<SCITEGIC>MOL_PROPERTY
Delta G
SciTegic.value.DoubleValue
3.966

@<SCITEGIC>MOL_PROPERTY
G
SciTegic.value.DoubleValue
37.668

@<SCITEGIC>MOL_PROPERTY
E
SciTegic.value.DoubleValue
-0.183

@<SCITEGIC>MOL_PROPERTY
-TS
SciTegic.value.DoubleValue
37.851

@<SCITEGIC>MOL_PROPERTY
U+W
SciTegic.value.DoubleValue
-24.327

@<SCITEGIC>MOL_PROPERTY
U
SciTegic.value.DoubleValue
27.916

@<SCITEGIC>MOL_PROPERTY
W
SciTegic.value.DoubleValue
-52.244

@<SCITEGIC>MOL_PROPERTY
W(PB)
SciTegic.value.DoubleValue
-54.694

@<SCITEGIC>MOL_PROPERTY
W(SA)
SciTegic.value.DoubleValue
2.450

@<SCITEGIC>MOL_PROPERTY
Valence
SciTegic.value.DoubleValue
6.751

@<SCITEGIC>MOL_PROPERTY
Coulomb
SciTegic.value.DoubleValue
19.932

@<SCITEGIC>MOL_PROPERTY
VdW
SciTegic.value.DoubleValue
1.234

@<SCITEGIC>MOL_PROPERTY
VdW6
SciTegic.value.DoubleValue
-10.165

@<SCITEGIC>MOL_PROPERTY
VdW12
SciTegic.value.DoubleValue
11.398

@<SCITEGIC>MOL_PROPERTY
Bond
SciTegic.value.DoubleValue
0.318

@<SCITEGIC>MOL_PROPERTY
Angle
SciTegic.value.DoubleValue
2.048

@<SCITEGIC>MOL_PROPERTY
Pdih
SciTegic.value.DoubleValue
4.385

@<SCITEGIC>MOL_PROPERTY
Idih
SciTegic.value.DoubleValue
0.000

@<SCITEGIC>MOL_PROPERTY
Tether
SciTegic.value.DoubleValue
0.000

@<TRIPOS>MOLECULE
guest-s15_vm2.mol2 : vm2 ligand conformer 119
          29          28           1
SMALL
USER_CHARGES
 
@<TRIPOS>ATOM
       1    C1      18.821529   20.270172   20.114152 C.3        1 MOL1        -0.2426
       2    H1      18.438008   20.793370   20.998772 H          1 MOL1         0.0959
       3    H2      19.716408   20.799452   19.761892 H          1 MOL1         0.0959
       4    H3      18.057071   20.344400   19.329923 H          1 MOL1         0.0959
       5    C2      19.137582   18.789130   20.422552 C.3        1 MOL1        -0.1410
       6    H4      19.399205   18.280101   19.484365 H          1 MOL1         0.0948
       7    H5      18.234965   18.289878   20.801626 H          1 MOL1         0.0948
       8    C3      20.299701   18.604639   21.427986 C.3        1 MOL1        -0.1435
       9    H6      20.524131   17.532051   21.508899 H          1 MOL1         0.0948
      10    H7      21.206516   19.081374   21.030928 H          1 MOL1         0.0948
      11    C4      19.989451   19.163735   22.836919 C.3        1 MOL1        -0.1435
      12    H8      19.049158   18.722978   23.188808 H          1 MOL1         0.0948
      13    H9      19.846407   20.250854   22.782014 H          1 MOL1         0.0948
      14    C5      21.125762   18.848430   23.838418 C.3        1 MOL1        -0.1435
      15    H10     21.204814   17.762032   23.978272 H          1 MOL1         0.0948
      16    H11     22.080871   19.160365   23.393739 H          1 MOL1         0.0948
      17    C6      20.991997   19.555093   25.216901 C.3        1 MOL1        -0.1500
      18    H12     21.041717   20.642352   25.073091 H          1 MOL1         0.0948
      19    H13     21.879978   19.299584   25.809962 H          1 MOL1         0.0948
      20    C7      19.745350   19.218111   26.074217 C.3        1 MOL1         0.1162
      21    H14     19.930886   19.623633   27.073630 H          1 MOL1         0.0910
      22    C8      19.529026   17.702595   26.227599 C.3        1 MOL1        -0.2491
      23    H15     18.731331   17.499899   26.952646 H          1 MOL1         0.0959
      24    H16     19.244881   17.235713   25.276961 H          1 MOL1         0.0959
      25    H17     20.441801   17.214860   26.591603 H          1 MOL1         0.0959
      26    N1      18.495602   19.904094   25.595258 N.4        1 MOL1        -0.5987
      27    H18     18.239817   19.595229   24.655161 H          1 MOL1         0.3605
      28    H19     18.615224   20.920705   25.564986 H          1 MOL1         0.3605
      29    H20     17.702363   19.707987   26.212605 H          1 MOL1         0.3605
@<TRIPOS>BOND
    1     1     2    1
    2     1     3    1
    3     1     4    1
    4     1     5    1
    5     5     6    1
    6     5     7    1
    7     5     8    1
    8     8     9    1
    9     8    10    1
   10     8    11    1
   11    11    12    1
   12    11    13    1
   13    11    14    1
   14    14    15    1
   15    14    16    1
   16    14    17    1
   17    17    18    1
   18    17    19    1
   19    17    20    1
   20    20    21    1
   21    20    22    1
   22    22    23    1
   23    22    24    1
   24    22    25    1
   25    20    26    1
   26    26    27    1
   27    26    28    1
   28    26    29    1
@<TRIPOS>SUBSTRUCTURE
       1 MOL1            1 RESIDUE      1      MOL     
@<SCITEGIC>MOL_PROPERTY
VM2 Rank
SciTegic.value.IntegerValue
119

@<SCITEGIC>MOL_PROPERTY
Conf_Id
SciTegic.value.IntegerValue
309

@<SCITEGIC>MOL_PROPERTY
Probability
SciTegic.value.DoubleValue
0.01

@<SCITEGIC>MOL_PROPERTY
Sum Probability
SciTegic.value.DoubleValue
99.61

@<SCITEGIC>MOL_PROPERTY
Delta G
SciTegic.value.DoubleValue
3.987

@<SCITEGIC>MOL_PROPERTY
G
SciTegic.value.DoubleValue
37.689

@<SCITEGIC>MOL_PROPERTY
E
SciTegic.value.DoubleValue
-0.405

@<SCITEGIC>MOL_PROPERTY
-TS
SciTegic.value.DoubleValue
38.094

@<SCITEGIC>MOL_PROPERTY
U+W
SciTegic.value.DoubleValue
-24.549

@<SCITEGIC>MOL_PROPERTY
U
SciTegic.value.DoubleValue
27.945

@<SCITEGIC>MOL_PROPERTY
W
SciTegic.value.DoubleValue
-52.494

@<SCITEGIC>MOL_PROPERTY
W(PB)
SciTegic.value.DoubleValue
-54.918

@<SCITEGIC>MOL_PROPERTY
W(SA)
SciTegic.value.DoubleValue
2.424

@<SCITEGIC>MOL_PROPERTY
Valence
SciTegic.value.DoubleValue
5.549

@<SCITEGIC>MOL_PROPERTY
Coulomb
SciTegic.value.DoubleValue
21.393

@<SCITEGIC>MOL_PROPERTY
VdW
SciTegic.value.DoubleValue
1.003

@<SCITEGIC>MOL_PROPERTY
VdW6
SciTegic.value.DoubleValue
-10.751

@<SCITEGIC>MOL_PROPERTY
VdW12
SciTegic.value.DoubleValue
11.754

@<SCITEGIC>MOL_PROPERTY
Bond
SciTegic.value.DoubleValue
0.327

@<SCITEGIC>MOL_PROPERTY
Angle
SciTegic.value.DoubleValue
2.388

@<SCITEGIC>MOL_PROPERTY
Pdih
SciTegic.value.DoubleValue
2.834

@<SCITEGIC>MOL_PROPERTY
Idih
SciTegic.value.DoubleValue
0.000

@<SCITEGIC>MOL_PROPERTY
Tether
SciTegic.value.DoubleValue
0.000

@<TRIPOS>MOLECULE
guest-s15_vm2.mol2 : vm2 ligand conformer 120
          29          28           1
SMALL
USER_CHARGES
 
@<TRIPOS>ATOM
       1    C1      19.143308   19.325370   19.136221 C.3        1 MOL1        -0.2426
       2    H1      18.562030   20.256476   19.156273 H          1 MOL1         0.0959
       3    H2      20.140144   19.553061   18.736564 H          1 MOL1         0.0959
       4    H3      18.650340   18.635138   18.439369 H          1 MOL1         0.0959
       5    C2      19.239720   18.701389   20.544456 C.3        1 MOL1        -0.1410
       6    H4      19.797031   17.755878   20.486890 H          1 MOL1         0.0948
       7    H5      18.230826   18.453573   20.903026 H          1 MOL1         0.0948
       8    C3      19.930381   19.653555   21.545657 C.3        1 MOL1        -0.1435
       9    H6      20.936884   19.900233   21.180274 H          1 MOL1         0.0948
      10    H7      19.371133   20.597936   21.598686 H          1 MOL1         0.0948
      11    C4      20.029568   19.031284   22.956682 C.3        1 MOL1        -0.1435
      12    H8      20.597585   18.092228   22.903596 H          1 MOL1         0.0948
      13    H9      19.018859   18.782826   23.301715 H          1 MOL1         0.0948
      14    C5      20.707152   19.992614   23.960688 C.3        1 MOL1        -0.1435
      15    H10     21.645494   20.354753   23.518272 H          1 MOL1         0.0948
      16    H11     20.081618   20.884949   24.097023 H          1 MOL1         0.0948
      17    C6      21.049934   19.365247   25.341904 C.3        1 MOL1        -0.1500
      18    H12     21.571509   20.133408   25.927704 H          1 MOL1         0.0948
      19    H13     21.783153   18.558964   25.208052 H          1 MOL1         0.0948
      20    C7      19.869105   18.853684   26.207320 C.3        1 MOL1         0.1162
      21    H14     20.208629   18.882381   27.247337 H          1 MOL1         0.0910
      22    C8      19.506901   17.386494   25.911316 C.3        1 MOL1        -0.2491
      23    H15     18.757705   17.027315   26.627457 H          1 MOL1         0.0959
      24    H16     19.096677   17.249942   24.906508 H          1 MOL1         0.0959
      25    H17     20.388966   16.741616   26.008727 H          1 MOL1         0.0959
      26    N1      18.659931   19.746364   26.149756 N.4        1 MOL1        -0.5987
      27    H18     18.279077   19.788668   25.201233 H          1 MOL1         0.3605
      28    H19     18.889183   20.703279   26.433365 H          1 MOL1         0.3605
      29    H20     17.916606   19.411839   26.769614 H          1 MOL1         0.3605
@<TRIPOS>BOND
    1     1     2    1
    2     1     3    1
    3     1     4    1
    4     1     5    1
    5     5     6    1
    6     5     7    1
    7     5     8    1
    8     8     9    1
    9     8    10    1
   10     8    11    1
   11    11    12    1
   12    11    13    1
   13    11    14    1
   14    14    15    1
   15    14    16    1
   16    14    17    1
   17    17    18    1
   18    17    19    1
   19    17    20    1
   20    20    21    1
   21    20    22    1
   22    22    23    1
   23    22    24    1
   24    22    25    1
   25    20    26    1
   26    26    27    1
   27    26    28    1
   28    26    29    1
@<TRIPOS>SUBSTRUCTURE
       1 MOL1            1 RESIDUE      1      MOL     
@<SCITEGIC>MOL_PROPERTY
VM2 Rank
SciTegic.value.IntegerValue
120

@<SCITEGIC>MOL_PROPERTY
Conf_Id
SciTegic.value.IntegerValue
335

@<SCITEGIC>MOL_PROPERTY
Probability
SciTegic.value.DoubleValue
0.01

@<SCITEGIC>MOL_PROPERTY
Sum Probability
SciTegic.value.DoubleValue
99.63

@<SCITEGIC>MOL_PROPERTY
Delta G
SciTegic.value.DoubleValue
4.003

@<SCITEGIC>MOL_PROPERTY
G
SciTegic.value.DoubleValue
37.706

@<SCITEGIC>MOL_PROPERTY
E
SciTegic.value.DoubleValue
-0.180

@<SCITEGIC>MOL_PROPERTY
-TS
SciTegic.value.DoubleValue
37.886

@<SCITEGIC>MOL_PROPERTY
U+W
SciTegic.value.DoubleValue
-24.325

@<SCITEGIC>MOL_PROPERTY
U
SciTegic.value.DoubleValue
27.917

@<SCITEGIC>MOL_PROPERTY
W
SciTegic.value.DoubleValue
-52.242

@<SCITEGIC>MOL_PROPERTY
W(PB)
SciTegic.value.DoubleValue
-54.697

@<SCITEGIC>MOL_PROPERTY
W(SA)
SciTegic.value.DoubleValue
2.455

@<SCITEGIC>MOL_PROPERTY
Valence
SciTegic.value.DoubleValue
6.272

@<SCITEGIC>MOL_PROPERTY
Coulomb
SciTegic.value.DoubleValue
20.553

@<SCITEGIC>MOL_PROPERTY
VdW
SciTegic.value.DoubleValue
1.091

@<SCITEGIC>MOL_PROPERTY
VdW6
SciTegic.value.DoubleValue
-9.902

@<SCITEGIC>MOL_PROPERTY
VdW12
SciTegic.value.DoubleValue
10.993

@<SCITEGIC>MOL_PROPERTY
Bond
SciTegic.value.DoubleValue
0.299

@<SCITEGIC>MOL_PROPERTY
Angle
SciTegic.value.DoubleValue
2.362

@<SCITEGIC>MOL_PROPERTY
Pdih
SciTegic.value.DoubleValue
3.611

@<SCITEGIC>MOL_PROPERTY
Idih
SciTegic.value.DoubleValue
0.000

@<SCITEGIC>MOL_PROPERTY
Tether
SciTegic.value.DoubleValue
0.000

@<TRIPOS>MOLECULE
guest-s15_vm2.mol2 : vm2 ligand conformer 121
          29          28           1
SMALL
USER_CHARGES
 
@<TRIPOS>ATOM
       1    C1      20.297258   18.335980   19.908335 C.3        1 MOL1        -0.2426
       2    H1      21.294939   18.587106   20.287950 H          1 MOL1         0.0959
       3    H2      20.337420   17.305484   19.532334 H          1 MOL1         0.0959
       4    H3      20.078941   18.994123   19.057356 H          1 MOL1         0.0959
       5    C2      19.215870   18.468855   21.005104 C.3        1 MOL1        -0.1410
       6    H4      19.457770   17.800753   21.840044 H          1 MOL1         0.0948
       7    H5      18.260832   18.110385   20.596430 H          1 MOL1         0.0948
       8    C3      19.022278   19.925608   21.500369 C.3        1 MOL1        -0.1435
       9    H6      18.854911   20.565104   20.622724 H          1 MOL1         0.0948
      10    H7      18.098884   19.992843   22.091755 H          1 MOL1         0.0948
      11    C4      20.205928   20.506452   22.321472 C.3        1 MOL1        -0.1435
      12    H8      20.278259   21.579834   22.098232 H          1 MOL1         0.0948
      13    H9      21.160076   20.075297   21.994436 H          1 MOL1         0.0948
      14    C5      20.061038   20.361513   23.858261 C.3        1 MOL1        -0.1435
      15    H10     20.907659   20.876562   24.333171 H          1 MOL1         0.0948
      16    H11     19.156042   20.891198   24.184549 H          1 MOL1         0.0948
      17    C6      20.021862   18.895905   24.356604 C.3        1 MOL1        -0.1500
      18    H12     20.856368   18.343283   23.904884 H          1 MOL1         0.0948
      19    H13     19.096265   18.412176   24.020499 H          1 MOL1         0.0948
      20    C7      20.122563   18.782835   25.892816 C.3        1 MOL1         0.1162
      21    H14     21.040591   19.284379   26.214224 H          1 MOL1         0.0910
      22    C8      20.204776   17.307550   26.315817 C.3        1 MOL1        -0.2491
      23    H15     19.302841   16.758203   26.018053 H          1 MOL1         0.0959
      24    H16     21.071218   16.817516   25.854403 H          1 MOL1         0.0959
      25    H17     20.314115   17.221158   27.403922 H          1 MOL1         0.0959
      26    N1      18.984428   19.471302   26.595223 N.4        1 MOL1        -0.5987
      27    H18     19.078935   19.406775   27.612833 H          1 MOL1         0.3605
      28    H19     18.084150   19.054723   26.343463 H          1 MOL1         0.3605
      29    H20     18.943414   20.465097   26.353477 H          1 MOL1         0.3605
@<TRIPOS>BOND
    1     1     2    1
    2     1     3    1
    3     1     4    1
    4     1     5    1
    5     5     6    1
    6     5     7    1
    7     5     8    1
    8     8     9    1
    9     8    10    1
   10     8    11    1
   11    11    12    1
   12    11    13    1
   13    11    14    1
   14    14    15    1
   15    14    16    1
   16    14    17    1
   17    17    18    1
   18    17    19    1
   19    17    20    1
   20    20    21    1
   21    20    22    1
   22    22    23    1
   23    22    24    1
   24    22    25    1
   25    20    26    1
   26    26    27    1
   27    26    28    1
   28    26    29    1
@<TRIPOS>SUBSTRUCTURE
       1 MOL1            1 RESIDUE      1      MOL     
@<SCITEGIC>MOL_PROPERTY
VM2 Rank
SciTegic.value.IntegerValue
121

@<SCITEGIC>MOL_PROPERTY
Conf_Id
SciTegic.value.IntegerValue
1353

@<SCITEGIC>MOL_PROPERTY
Probability
SciTegic.value.DoubleValue
0.01

@<SCITEGIC>MOL_PROPERTY
Sum Probability
SciTegic.value.DoubleValue
99.64

@<SCITEGIC>MOL_PROPERTY
Delta G
SciTegic.value.DoubleValue
4.024

@<SCITEGIC>MOL_PROPERTY
G
SciTegic.value.DoubleValue
37.727

@<SCITEGIC>MOL_PROPERTY
E
SciTegic.value.DoubleValue
-0.067

@<SCITEGIC>MOL_PROPERTY
-TS
SciTegic.value.DoubleValue
37.794

@<SCITEGIC>MOL_PROPERTY
U+W
SciTegic.value.DoubleValue
-24.212

@<SCITEGIC>MOL_PROPERTY
U
SciTegic.value.DoubleValue
28.201

@<SCITEGIC>MOL_PROPERTY
W
SciTegic.value.DoubleValue
-52.413

@<SCITEGIC>MOL_PROPERTY
W(PB)
SciTegic.value.DoubleValue
-54.887

@<SCITEGIC>MOL_PROPERTY
W(SA)
SciTegic.value.DoubleValue
2.474

@<SCITEGIC>MOL_PROPERTY
Valence
SciTegic.value.DoubleValue
6.862

@<SCITEGIC>MOL_PROPERTY
Coulomb
SciTegic.value.DoubleValue
20.157

@<SCITEGIC>MOL_PROPERTY
VdW
SciTegic.value.DoubleValue
1.182

@<SCITEGIC>MOL_PROPERTY
VdW6
SciTegic.value.DoubleValue
-10.208

@<SCITEGIC>MOL_PROPERTY
VdW12
SciTegic.value.DoubleValue
11.390

@<SCITEGIC>MOL_PROPERTY
Bond
SciTegic.value.DoubleValue
0.322

@<SCITEGIC>MOL_PROPERTY
Angle
SciTegic.value.DoubleValue
1.966

@<SCITEGIC>MOL_PROPERTY
Pdih
SciTegic.value.DoubleValue
4.574

@<SCITEGIC>MOL_PROPERTY
Idih
SciTegic.value.DoubleValue
0.000

@<SCITEGIC>MOL_PROPERTY
Tether
SciTegic.value.DoubleValue
0.000

@<TRIPOS>MOLECULE
guest-s15_vm2.mol2 : vm2 ligand conformer 122
          29          28           1
SMALL
USER_CHARGES
 
@<TRIPOS>ATOM
       1    C1      18.608375   20.357058   20.885290 C.3        1 MOL1        -0.2426
       2    H1      17.754609   19.806767   21.301307 H          1 MOL1         0.0959
       3    H2      19.095141   20.914254   21.695111 H          1 MOL1         0.0959
       4    H3      18.217847   21.092836   20.170466 H          1 MOL1         0.0959
       5    C2      19.600710   19.401613   20.187515 C.3        1 MOL1        -0.1410
       6    H4      20.473486   19.972597   19.841215 H          1 MOL1         0.0948
       7    H5      19.123770   18.997231   19.283793 H          1 MOL1         0.0948
       8    C3      20.071881   18.215301   21.066921 C.3        1 MOL1        -0.1435
       9    H6      19.216626   17.578456   21.331515 H          1 MOL1         0.0948
      10    H7      20.728506   17.587070   20.449252 H          1 MOL1         0.0948
      11    C4      20.854685   18.623859   22.341981 C.3        1 MOL1        -0.1435
      12    H8      21.377515   19.575285   22.173068 H          1 MOL1         0.0948
      13    H9      21.637894   17.874912   22.523728 H          1 MOL1         0.0948
      14    C5      19.967431   18.710499   23.607875 C.3        1 MOL1        -0.1435
      15    H10     19.149524   19.420688   23.445434 H          1 MOL1         0.0948
      16    H11     19.503944   17.730838   23.782888 H          1 MOL1         0.0948
      17    C6      20.790630   19.134232   24.852023 C.3        1 MOL1        -0.1500
      18    H12     21.293264   20.087823   24.643580 H          1 MOL1         0.0948
      19    H13     21.590911   18.402362   25.024220 H          1 MOL1         0.0948
      20    C7      19.970410   19.289477   26.154451 C.3        1 MOL1         0.1162
      21    H14     20.662527   19.614308   26.937534 H          1 MOL1         0.0910
      22    C8      19.346681   17.958150   26.608088 C.3        1 MOL1        -0.2491
      23    H15     18.889298   18.067160   27.599104 H          1 MOL1         0.0959
      24    H16     18.567502   17.618253   25.915575 H          1 MOL1         0.0959
      25    H17     20.110519   17.173854   26.678843 H          1 MOL1         0.0959
      26    N1      18.925197   20.365810   26.049858 N.4        1 MOL1        -0.5987
      27    H18     19.338592   21.266317   25.791213 H          1 MOL1         0.3605
      28    H19     18.434809   20.498103   26.939084 H          1 MOL1         0.3605
      29    H20     18.222915   20.133556   25.343236 H          1 MOL1         0.3605
@<TRIPOS>BOND
    1     1     2    1
    2     1     3    1
    3     1     4    1
    4     1     5    1
    5     5     6    1
    6     5     7    1
    7     5     8    1
    8     8     9    1
    9     8    10    1
   10     8    11    1
   11    11    12    1
   12    11    13    1
   13    11    14    1
   14    14    15    1
   15    14    16    1
   16    14    17    1
   17    17    18    1
   18    17    19    1
   19    17    20    1
   20    20    21    1
   21    20    22    1
   22    22    23    1
   23    22    24    1
   24    22    25    1
   25    20    26    1
   26    26    27    1
   27    26    28    1
   28    26    29    1
@<TRIPOS>SUBSTRUCTURE
       1 MOL1            1 RESIDUE      1      MOL     
@<SCITEGIC>MOL_PROPERTY
VM2 Rank
SciTegic.value.IntegerValue
122

@<SCITEGIC>MOL_PROPERTY
Conf_Id
SciTegic.value.IntegerValue
602

@<SCITEGIC>MOL_PROPERTY
Probability
SciTegic.value.DoubleValue
0.01

@<SCITEGIC>MOL_PROPERTY
Sum Probability
SciTegic.value.DoubleValue
99.65

@<SCITEGIC>MOL_PROPERTY
Delta G
SciTegic.value.DoubleValue
4.038

@<SCITEGIC>MOL_PROPERTY
G
SciTegic.value.DoubleValue
37.740

@<SCITEGIC>MOL_PROPERTY
E
SciTegic.value.DoubleValue
-0.154

@<SCITEGIC>MOL_PROPERTY
-TS
SciTegic.value.DoubleValue
37.894

@<SCITEGIC>MOL_PROPERTY
U+W
SciTegic.value.DoubleValue
-24.299

@<SCITEGIC>MOL_PROPERTY
U
SciTegic.value.DoubleValue
28.237

@<SCITEGIC>MOL_PROPERTY
W
SciTegic.value.DoubleValue
-52.536

@<SCITEGIC>MOL_PROPERTY
W(PB)
SciTegic.value.DoubleValue
-54.983

@<SCITEGIC>MOL_PROPERTY
W(SA)
SciTegic.value.DoubleValue
2.448

@<SCITEGIC>MOL_PROPERTY
Valence
SciTegic.value.DoubleValue
6.639

@<SCITEGIC>MOL_PROPERTY
Coulomb
SciTegic.value.DoubleValue
20.375

@<SCITEGIC>MOL_PROPERTY
VdW
SciTegic.value.DoubleValue
1.223

@<SCITEGIC>MOL_PROPERTY
VdW6
SciTegic.value.DoubleValue
-10.233

@<SCITEGIC>MOL_PROPERTY
VdW12
SciTegic.value.DoubleValue
11.456

@<SCITEGIC>MOL_PROPERTY
Bond
SciTegic.value.DoubleValue
0.310

@<SCITEGIC>MOL_PROPERTY
Angle
SciTegic.value.DoubleValue
1.952

@<SCITEGIC>MOL_PROPERTY
Pdih
SciTegic.value.DoubleValue
4.377

@<SCITEGIC>MOL_PROPERTY
Idih
SciTegic.value.DoubleValue
0.000

@<SCITEGIC>MOL_PROPERTY
Tether
SciTegic.value.DoubleValue
0.000

@<TRIPOS>MOLECULE
guest-s15_vm2.mol2 : vm2 ligand conformer 123
          29          28           1
SMALL
USER_CHARGES
 
@<TRIPOS>ATOM
       1    C1      20.182971   20.555399   19.854515 C.3        1 MOL1        -0.2426
       2    H1      19.556376   20.250048   19.006358 H          1 MOL1         0.0959
       3    H2      19.712922   21.425440   20.331263 H          1 MOL1         0.0959
       4    H3      21.155863   20.873145   19.457601 H          1 MOL1         0.0959
       5    C2      20.356535   19.398535   20.861044 C.3        1 MOL1        -0.1410
       6    H4      21.021179   19.723088   21.670678 H          1 MOL1         0.0948
       7    H5      20.859717   18.558052   20.362923 H          1 MOL1         0.0948
       8    C3      18.995419   18.925219   21.425686 C.3        1 MOL1        -0.1435
       9    H6      18.448319   19.769528   21.867107 H          1 MOL1         0.0948
      10    H7      18.381403   18.573544   20.585027 H          1 MOL1         0.0948
      11    C4      19.122632   17.773365   22.456540 C.3        1 MOL1        -0.1435
      12    H8      20.024676   17.179104   22.255687 H          1 MOL1         0.0948
      13    H9      18.277912   17.086640   22.307272 H          1 MOL1         0.0948
      14    C5      19.100355   18.223776   23.940105 C.3        1 MOL1        -0.1435
      15    H10     18.143492   18.720676   24.148142 H          1 MOL1         0.0948
      16    H11     19.120047   17.320641   24.563126 H          1 MOL1         0.0948
      17    C6      20.274580   19.157743   24.337305 C.3        1 MOL1        -0.1500
      18    H12     20.196241   20.095418   23.773877 H          1 MOL1         0.0948
      19    H13     21.225461   18.696423   24.039933 H          1 MOL1         0.0948
      20    C7      20.342377   19.516041   25.840793 C.3        1 MOL1         0.1162
      21    H14     21.160680   20.231792   25.966637 H          1 MOL1         0.0910
      22    C8      20.661003   18.291654   26.716720 C.3        1 MOL1        -0.2491
      23    H15     20.844466   18.600170   27.753230 H          1 MOL1         0.0959
      24    H16     19.835578   17.570284   26.724650 H          1 MOL1         0.0959
      25    H17     21.562512   17.779472   26.358253 H          1 MOL1         0.0959
      26    N1      19.100129   20.214267   26.321292 N.4        1 MOL1        -0.5987
      27    H18     18.907964   21.057854   25.773546 H          1 MOL1         0.3605
      28    H19     19.185829   20.497988   27.301486 H          1 MOL1         0.3605
      29    H20     18.281329   19.605311   26.248020 H          1 MOL1         0.3605
@<TRIPOS>BOND
    1     1     2    1
    2     1     3    1
    3     1     4    1
    4     1     5    1
    5     5     6    1
    6     5     7    1
    7     5     8    1
    8     8     9    1
    9     8    10    1
   10     8    11    1
   11    11    12    1
   12    11    13    1
   13    11    14    1
   14    14    15    1
   15    14    16    1
   16    14    17    1
   17    17    18    1
   18    17    19    1
   19    17    20    1
   20    20    21    1
   21    20    22    1
   22    22    23    1
   23    22    24    1
   24    22    25    1
   25    20    26    1
   26    26    27    1
   27    26    28    1
   28    26    29    1
@<TRIPOS>SUBSTRUCTURE
       1 MOL1            1 RESIDUE      1      MOL     
@<SCITEGIC>MOL_PROPERTY
VM2 Rank
SciTegic.value.IntegerValue
123

@<SCITEGIC>MOL_PROPERTY
Conf_Id
SciTegic.value.IntegerValue
600

@<SCITEGIC>MOL_PROPERTY
Probability
SciTegic.value.DoubleValue
0.01

@<SCITEGIC>MOL_PROPERTY
Sum Probability
SciTegic.value.DoubleValue
99.66

@<SCITEGIC>MOL_PROPERTY
Delta G
SciTegic.value.DoubleValue
4.055

@<SCITEGIC>MOL_PROPERTY
G
SciTegic.value.DoubleValue
37.757

@<SCITEGIC>MOL_PROPERTY
E
SciTegic.value.DoubleValue
-0.141

@<SCITEGIC>MOL_PROPERTY
-TS
SciTegic.value.DoubleValue
37.898

@<SCITEGIC>MOL_PROPERTY
U+W
SciTegic.value.DoubleValue
-24.285

@<SCITEGIC>MOL_PROPERTY
U
SciTegic.value.DoubleValue
28.217

@<SCITEGIC>MOL_PROPERTY
W
SciTegic.value.DoubleValue
-52.503

@<SCITEGIC>MOL_PROPERTY
W(PB)
SciTegic.value.DoubleValue
-54.946

@<SCITEGIC>MOL_PROPERTY
W(SA)
SciTegic.value.DoubleValue
2.444

@<SCITEGIC>MOL_PROPERTY
Valence
SciTegic.value.DoubleValue
6.821

@<SCITEGIC>MOL_PROPERTY
Coulomb
SciTegic.value.DoubleValue
20.147

@<SCITEGIC>MOL_PROPERTY
VdW
SciTegic.value.DoubleValue
1.249

@<SCITEGIC>MOL_PROPERTY
VdW6
SciTegic.value.DoubleValue
-10.236

@<SCITEGIC>MOL_PROPERTY
VdW12
SciTegic.value.DoubleValue
11.486

@<SCITEGIC>MOL_PROPERTY
Bond
SciTegic.value.DoubleValue
0.316

@<SCITEGIC>MOL_PROPERTY
Angle
SciTegic.value.DoubleValue
1.990

@<SCITEGIC>MOL_PROPERTY
Pdih
SciTegic.value.DoubleValue
4.515

@<SCITEGIC>MOL_PROPERTY
Idih
SciTegic.value.DoubleValue
0.000

@<SCITEGIC>MOL_PROPERTY
Tether
SciTegic.value.DoubleValue
0.000

@<TRIPOS>MOLECULE
guest-s15_vm2.mol2 : vm2 ligand conformer 124
          29          28           1
SMALL
USER_CHARGES
 
@<TRIPOS>ATOM
       1    C1      18.753909   19.482469   19.354008 C.3        1 MOL1        -0.2426
       2    H1      19.341945   20.338846   18.998932 H          1 MOL1         0.0959
       3    H2      18.503711   18.861454   18.484077 H          1 MOL1         0.0959
       4    H3      17.815388   19.863844   19.777048 H          1 MOL1         0.0959
       5    C2      19.541397   18.664252   20.399135 C.3        1 MOL1        -0.1410
       6    H4      20.456412   18.267752   19.937176 H          1 MOL1         0.0948
       7    H5      18.941877   17.797330   20.710424 H          1 MOL1         0.0948
       8    C3      19.907151   19.515795   21.634959 C.3        1 MOL1        -0.1435
       9    H6      20.506139   20.380407   21.317441 H          1 MOL1         0.0948
      10    H7      18.987058   19.914870   22.080386 H          1 MOL1         0.0948
      11    C4      20.698346   18.695608   22.682777 C.3        1 MOL1        -0.1435
      12    H8      21.596015   18.284022   22.201078 H          1 MOL1         0.0948
      13    H9      20.100858   17.833439   23.002730 H          1 MOL1         0.0948
      14    C5      21.143816   19.534848   23.908832 C.3        1 MOL1        -0.1435
      15    H10     21.911872   18.985641   24.470789 H          1 MOL1         0.0948
      16    H11     21.643729   20.442095   23.542281 H          1 MOL1         0.0948
      17    C6      19.995621   19.947058   24.871424 C.3        1 MOL1        -0.1500
      18    H12     19.042693   20.026599   24.335102 H          1 MOL1         0.0948
      19    H13     20.215752   20.958259   25.238280 H          1 MOL1         0.0948
      20    C7      19.827615   19.030770   26.107117 C.3        1 MOL1         0.1162
      21    H14     20.780004   19.006703   26.645579 H          1 MOL1         0.0910
      22    C8      19.451788   17.587665   25.731160 C.3        1 MOL1        -0.2491
      23    H15     20.267769   17.098016   25.187378 H          1 MOL1         0.0959
      24    H16     19.260408   16.990460   26.631163 H          1 MOL1         0.0959
      25    H17     18.550344   17.561381   25.106367 H          1 MOL1         0.0959
      26    N1      18.816357   19.597535   27.064589 N.4        1 MOL1        -0.5987
      27    H18     19.070996   20.542422   27.366599 H          1 MOL1         0.3605
      28    H19     18.734491   19.020469   27.906586 H          1 MOL1         0.3605
      29    H20     17.887037   19.650218   26.638834 H          1 MOL1         0.3605
@<TRIPOS>BOND
    1     1     2    1
    2     1     3    1
    3     1     4    1
    4     1     5    1
    5     5     6    1
    6     5     7    1
    7     5     8    1
    8     8     9    1
    9     8    10    1
   10     8    11    1
   11    11    12    1
   12    11    13    1
   13    11    14    1
   14    14    15    1
   15    14    16    1
   16    14    17    1
   17    17    18    1
   18    17    19    1
   19    17    20    1
   20    20    21    1
   21    20    22    1
   22    22    23    1
   23    22    24    1
   24    22    25    1
   25    20    26    1
   26    26    27    1
   27    26    28    1
   28    26    29    1
@<TRIPOS>SUBSTRUCTURE
       1 MOL1            1 RESIDUE      1      MOL     
@<SCITEGIC>MOL_PROPERTY
VM2 Rank
SciTegic.value.IntegerValue
124

@<SCITEGIC>MOL_PROPERTY
Conf_Id
SciTegic.value.IntegerValue
274

@<SCITEGIC>MOL_PROPERTY
Probability
SciTegic.value.DoubleValue
0.01

@<SCITEGIC>MOL_PROPERTY
Sum Probability
SciTegic.value.DoubleValue
99.67

@<SCITEGIC>MOL_PROPERTY
Delta G
SciTegic.value.DoubleValue
4.077

@<SCITEGIC>MOL_PROPERTY
G
SciTegic.value.DoubleValue
37.780

@<SCITEGIC>MOL_PROPERTY
E
SciTegic.value.DoubleValue
0.045

@<SCITEGIC>MOL_PROPERTY
-TS
SciTegic.value.DoubleValue
37.735

@<SCITEGIC>MOL_PROPERTY
U+W
SciTegic.value.DoubleValue
-24.100

@<SCITEGIC>MOL_PROPERTY
U
SciTegic.value.DoubleValue
28.131

@<SCITEGIC>MOL_PROPERTY
W
SciTegic.value.DoubleValue
-52.230

@<SCITEGIC>MOL_PROPERTY
W(PB)
SciTegic.value.DoubleValue
-54.732

@<SCITEGIC>MOL_PROPERTY
W(SA)
SciTegic.value.DoubleValue
2.502

@<SCITEGIC>MOL_PROPERTY
Valence
SciTegic.value.DoubleValue
6.993

@<SCITEGIC>MOL_PROPERTY
Coulomb
SciTegic.value.DoubleValue
19.895

@<SCITEGIC>MOL_PROPERTY
VdW
SciTegic.value.DoubleValue
1.243

@<SCITEGIC>MOL_PROPERTY
VdW6
SciTegic.value.DoubleValue
-9.657

@<SCITEGIC>MOL_PROPERTY
VdW12
SciTegic.value.DoubleValue
10.900

@<SCITEGIC>MOL_PROPERTY
Bond
SciTegic.value.DoubleValue
0.303

@<SCITEGIC>MOL_PROPERTY
Angle
SciTegic.value.DoubleValue
1.907

@<SCITEGIC>MOL_PROPERTY
Pdih
SciTegic.value.DoubleValue
4.782

@<SCITEGIC>MOL_PROPERTY
Idih
SciTegic.value.DoubleValue
0.000

@<SCITEGIC>MOL_PROPERTY
Tether
SciTegic.value.DoubleValue
0.000

@<TRIPOS>MOLECULE
guest-s15_vm2.mol2 : vm2 ligand conformer 125
          29          28           1
SMALL
USER_CHARGES
 
@<TRIPOS>ATOM
       1    C1      20.980939   19.898339   20.356212 C.3        1 MOL1        -0.2426
       2    H1      21.575575   20.487373   21.066460 H          1 MOL1         0.0959
       3    H2      21.315691   18.855008   20.409364 H          1 MOL1         0.0959
       4    H3      21.204117   20.265334   19.346058 H          1 MOL1         0.0959
       5    C2      19.470246   20.025856   20.656261 C.3        1 MOL1        -0.1410
       6    H4      18.899135   19.406825   19.950316 H          1 MOL1         0.0948
       7    H5      19.159840   21.064405   20.475041 H          1 MOL1         0.0948
       8    C3      19.100006   19.642909   22.109185 C.3        1 MOL1        -0.1435
       9    H6      19.659504   20.287686   22.795448 H          1 MOL1         0.0948
      10    H7      18.036516   19.869631   22.265256 H          1 MOL1         0.0948
      11    C4      19.350991   18.146392   22.428825 C.3        1 MOL1        -0.1435
      12    H8      20.419113   17.905958   22.347956 H          1 MOL1         0.0948
      13    H9      18.845767   17.546624   21.659190 H          1 MOL1         0.0948
      14    C5      18.818322   17.695627   23.814358 C.3        1 MOL1        -0.1435
      15    H10     17.870931   18.200441   24.045126 H          1 MOL1         0.0948
      16    H11     18.567342   16.628131   23.744448 H          1 MOL1         0.0948
      17    C6      19.827336   17.852061   24.984258 C.3        1 MOL1        -0.1500
      18    H12     20.727035   17.266106   24.753921 H          1 MOL1         0.0948
      19    H13     19.393208   17.397650   25.884796 H          1 MOL1         0.0948
      20    C7      20.243727   19.302565   25.307924 C.3        1 MOL1         0.1162
      21    H14     20.711990   19.733170   24.419102 H          1 MOL1         0.0910
      22    C8      21.278904   19.320804   26.443613 C.3        1 MOL1        -0.2491
      23    H15     20.862307   18.901631   27.368092 H          1 MOL1         0.0959
      24    H16     22.165631   18.734644   26.171801 H          1 MOL1         0.0959
      25    H17     21.608747   20.346141   26.651614 H          1 MOL1         0.0959
      26    N1      19.065529   20.171448   25.653366 N.4        1 MOL1        -0.5987
      27    H18     19.352141   21.137650   25.834920 H          1 MOL1         0.3605
      28    H19     18.586242   19.830825   26.491150 H          1 MOL1         0.3605
      29    H20     18.382323   20.187422   24.891437 H          1 MOL1         0.3605
@<TRIPOS>BOND
    1     1     2    1
    2     1     3    1
    3     1     4    1
    4     1     5    1
    5     5     6    1
    6     5     7    1
    7     5     8    1
    8     8     9    1
    9     8    10    1
   10     8    11    1
   11    11    12    1
   12    11    13    1
   13    11    14    1
   14    14    15    1
   15    14    16    1
   16    14    17    1
   17    17    18    1
   18    17    19    1
   19    17    20    1
   20    20    21    1
   21    20    22    1
   22    22    23    1
   23    22    24    1
   24    22    25    1
   25    20    26    1
   26    26    27    1
   27    26    28    1
   28    26    29    1
@<TRIPOS>SUBSTRUCTURE
       1 MOL1            1 RESIDUE      1      MOL     
@<SCITEGIC>MOL_PROPERTY
VM2 Rank
SciTegic.value.IntegerValue
125

@<SCITEGIC>MOL_PROPERTY
Conf_Id
SciTegic.value.IntegerValue
1016

@<SCITEGIC>MOL_PROPERTY
Probability
SciTegic.value.DoubleValue
0.01

@<SCITEGIC>MOL_PROPERTY
Sum Probability
SciTegic.value.DoubleValue
99.68

@<SCITEGIC>MOL_PROPERTY
Delta G
SciTegic.value.DoubleValue
4.079

@<SCITEGIC>MOL_PROPERTY
G
SciTegic.value.DoubleValue
37.782

@<SCITEGIC>MOL_PROPERTY
E
SciTegic.value.DoubleValue
-0.158

@<SCITEGIC>MOL_PROPERTY
-TS
SciTegic.value.DoubleValue
37.939

@<SCITEGIC>MOL_PROPERTY
U+W
SciTegic.value.DoubleValue
-24.302

@<SCITEGIC>MOL_PROPERTY
U
SciTegic.value.DoubleValue
28.166

@<SCITEGIC>MOL_PROPERTY
W
SciTegic.value.DoubleValue
-52.468

@<SCITEGIC>MOL_PROPERTY
W(PB)
SciTegic.value.DoubleValue
-54.891

@<SCITEGIC>MOL_PROPERTY
W(SA)
SciTegic.value.DoubleValue
2.423

@<SCITEGIC>MOL_PROPERTY
Valence
SciTegic.value.DoubleValue
6.294

@<SCITEGIC>MOL_PROPERTY
Coulomb
SciTegic.value.DoubleValue
21.099

@<SCITEGIC>MOL_PROPERTY
VdW
SciTegic.value.DoubleValue
0.772

@<SCITEGIC>MOL_PROPERTY
VdW6
SciTegic.value.DoubleValue
-10.790

@<SCITEGIC>MOL_PROPERTY
VdW12
SciTegic.value.DoubleValue
11.563

@<SCITEGIC>MOL_PROPERTY
Bond
SciTegic.value.DoubleValue
0.315

@<SCITEGIC>MOL_PROPERTY
Angle
SciTegic.value.DoubleValue
2.120

@<SCITEGIC>MOL_PROPERTY
Pdih
SciTegic.value.DoubleValue
3.860

@<SCITEGIC>MOL_PROPERTY
Idih
SciTegic.value.DoubleValue
0.000

@<SCITEGIC>MOL_PROPERTY
Tether
SciTegic.value.DoubleValue
0.000

@<TRIPOS>MOLECULE
guest-s15_vm2.mol2 : vm2 ligand conformer 126
          29          28           1
SMALL
USER_CHARGES
 
@<TRIPOS>ATOM
       1    C1      18.430151   19.550924   20.249921 C.3        1 MOL1        -0.2426
       2    H1      18.592354   18.831560   19.436754 H          1 MOL1         0.0959
       3    H2      17.919967   19.027656   21.065842 H          1 MOL1         0.0959
       4    H3      17.749806   20.327184   19.876506 H          1 MOL1         0.0959
       5    C2      19.768006   20.178641   20.705587 C.3        1 MOL1        -0.1410
       6    H4      19.589014   20.945753   21.471616 H          1 MOL1         0.0948
       7    H5      20.203213   20.706714   19.845582 H          1 MOL1         0.0948
       8    C3      20.796493   19.136485   21.215533 C.3        1 MOL1        -0.1435
       9    H6      20.648937   18.174808   20.705109 H          1 MOL1         0.0948
      10    H7      21.799598   19.475711   20.922141 H          1 MOL1         0.0948
      11    C4      20.806529   18.929827   22.751955 C.3        1 MOL1        -0.1435
      12    H8      21.053857   19.882276   23.239356 H          1 MOL1         0.0948
      13    H9      21.623035   18.237532   22.999543 H          1 MOL1         0.0948
      14    C5      19.482528   18.370626   23.327200 C.3        1 MOL1        -0.1435
      15    H10     18.682903   19.113070   23.214919 H          1 MOL1         0.0948
      16    H11     19.176866   17.492920   22.741359 H          1 MOL1         0.0948
      17    C6      19.595724   17.954891   24.816152 C.3        1 MOL1        -0.1500
      18    H12     20.322584   17.135988   24.899929 H          1 MOL1         0.0948
      19    H13     18.632707   17.544788   25.148187 H          1 MOL1         0.0948
      20    C7      20.017737   19.101362   25.762111 C.3        1 MOL1         0.1162
      21    H14     20.984417   19.487554   25.425567 H          1 MOL1         0.0910
      22    C8      20.184271   18.577178   27.197091 C.3        1 MOL1        -0.2491
      23    H15     20.521591   19.378254   27.866322 H          1 MOL1         0.0959
      24    H16     19.238459   18.181047   27.587515 H          1 MOL1         0.0959
      25    H17     20.932042   17.775194   27.234477 H          1 MOL1         0.0959
      26    N1      19.054561   20.256065   25.728450 N.4        1 MOL1        -0.5987
      27    H18     19.362453   21.018662   26.338602 H          1 MOL1         0.3605
      28    H19     18.121680   19.971771   26.038969 H          1 MOL1         0.3605
      29    H20     18.963532   20.635388   24.782059 H          1 MOL1         0.3605
@<TRIPOS>BOND
    1     1     2    1
    2     1     3    1
    3     1     4    1
    4     1     5    1
    5     5     6    1
    6     5     7    1
    7     5     8    1
    8     8     9    1
    9     8    10    1
   10     8    11    1
   11    11    12    1
   12    11    13    1
   13    11    14    1
   14    14    15    1
   15    14    16    1
   16    14    17    1
   17    17    18    1
   18    17    19    1
   19    17    20    1
   20    20    21    1
   21    20    22    1
   22    22    23    1
   23    22    24    1
   24    22    25    1
   25    20    26    1
   26    26    27    1
   27    26    28    1
   28    26    29    1
@<TRIPOS>SUBSTRUCTURE
       1 MOL1            1 RESIDUE      1      MOL     
@<SCITEGIC>MOL_PROPERTY
VM2 Rank
SciTegic.value.IntegerValue
126

@<SCITEGIC>MOL_PROPERTY
Conf_Id
SciTegic.value.IntegerValue
696

@<SCITEGIC>MOL_PROPERTY
Probability
SciTegic.value.DoubleValue
0.01

@<SCITEGIC>MOL_PROPERTY
Sum Probability
SciTegic.value.DoubleValue
99.69

@<SCITEGIC>MOL_PROPERTY
Delta G
SciTegic.value.DoubleValue
4.111

@<SCITEGIC>MOL_PROPERTY
G
SciTegic.value.DoubleValue
37.814

@<SCITEGIC>MOL_PROPERTY
E
SciTegic.value.DoubleValue
-0.106

@<SCITEGIC>MOL_PROPERTY
-TS
SciTegic.value.DoubleValue
37.919

@<SCITEGIC>MOL_PROPERTY
U+W
SciTegic.value.DoubleValue
-24.250

@<SCITEGIC>MOL_PROPERTY
U
SciTegic.value.DoubleValue
28.133

@<SCITEGIC>MOL_PROPERTY
W
SciTegic.value.DoubleValue
-52.383

@<SCITEGIC>MOL_PROPERTY
W(PB)
SciTegic.value.DoubleValue
-54.837

@<SCITEGIC>MOL_PROPERTY
W(SA)
SciTegic.value.DoubleValue
2.454

@<SCITEGIC>MOL_PROPERTY
Valence
SciTegic.value.DoubleValue
6.427

@<SCITEGIC>MOL_PROPERTY
Coulomb
SciTegic.value.DoubleValue
20.720

@<SCITEGIC>MOL_PROPERTY
VdW
SciTegic.value.DoubleValue
0.986

@<SCITEGIC>MOL_PROPERTY
VdW6
SciTegic.value.DoubleValue
-10.459

@<SCITEGIC>MOL_PROPERTY
VdW12
SciTegic.value.DoubleValue
11.445

@<SCITEGIC>MOL_PROPERTY
Bond
SciTegic.value.DoubleValue
0.299

@<SCITEGIC>MOL_PROPERTY
Angle
SciTegic.value.DoubleValue
1.839

@<SCITEGIC>MOL_PROPERTY
Pdih
SciTegic.value.DoubleValue
4.288

@<SCITEGIC>MOL_PROPERTY
Idih
SciTegic.value.DoubleValue
0.000

@<SCITEGIC>MOL_PROPERTY
Tether
SciTegic.value.DoubleValue
0.000

@<TRIPOS>MOLECULE
guest-s15_vm2.mol2 : vm2 ligand conformer 127
          29          28           1
SMALL
USER_CHARGES
 
@<TRIPOS>ATOM
       1    C1      20.267849   20.762402   20.647547 C.3        1 MOL1        -0.2426
       2    H1      19.363333   21.343481   20.425884 H          1 MOL1         0.0959
       3    H2      20.563606   20.967124   21.683984 H          1 MOL1         0.0959
       4    H3      21.071408   21.129730   19.996242 H          1 MOL1         0.0959
       5    C2      20.029497   19.253418   20.414153 C.3        1 MOL1        -0.1410
       6    H4      20.939534   18.691776   20.664410 H          1 MOL1         0.0948
       7    H5      19.856934   19.084453   19.342104 H          1 MOL1         0.0948
       8    C3      18.819481   18.691061   21.202881 C.3        1 MOL1        -0.1435
       9    H6      17.904959   19.191384   20.855817 H          1 MOL1         0.0948
      10    H7      18.694995   17.629095   20.950109 H          1 MOL1         0.0948
      11    C4      18.913025   18.835316   22.743546 C.3        1 MOL1        -0.1435
      12    H8      18.001523   18.410481   23.186040 H          1 MOL1         0.0948
      13    H9      18.921416   19.900503   23.000958 H          1 MOL1         0.0948
      14    C5      20.151715   18.128761   23.348651 C.3        1 MOL1        -0.1435
      15    H10     20.231544   17.124234   22.910753 H          1 MOL1         0.0948
      16    H11     21.065096   18.663829   23.055901 H          1 MOL1         0.0948
      17    C6      20.124672   17.976725   24.892276 C.3        1 MOL1        -0.1500
      18    H12     20.983366   17.350498   25.168975 H          1 MOL1         0.0948
      19    H13     19.233165   17.416197   25.203111 H          1 MOL1         0.0948
      20    C7      20.213545   19.307281   25.676554 C.3        1 MOL1         0.1162
      21    H14     20.937043   19.956576   25.174065 H          1 MOL1         0.0910
      22    C8      20.710115   19.051455   27.109099 C.3        1 MOL1        -0.2491
      23    H15     21.702822   18.584280   27.101287 H          1 MOL1         0.0959
      24    H16     20.792196   19.993028   27.666042 H          1 MOL1         0.0959
      25    H17     20.024997   18.390007   27.654198 H          1 MOL1         0.0959
      26    N1      18.906101   20.049580   25.719293 N.4        1 MOL1        -0.5987
      27    H18     19.000502   20.944930   26.207333 H          1 MOL1         0.3605
      28    H19     18.188252   19.508439   26.208579 H          1 MOL1         0.3605
      29    H20     18.556865   20.245254   24.778502 H          1 MOL1         0.3605
@<TRIPOS>BOND
    1     1     2    1
    2     1     3    1
    3     1     4    1
    4     1     5    1
    5     5     6    1
    6     5     7    1
    7     5     8    1
    8     8     9    1
    9     8    10    1
   10     8    11    1
   11    11    12    1
   12    11    13    1
   13    11    14    1
   14    14    15    1
   15    14    16    1
   16    14    17    1
   17    17    18    1
   18    17    19    1
   19    17    20    1
   20    20    21    1
   21    20    22    1
   22    22    23    1
   23    22    24    1
   24    22    25    1
   25    20    26    1
   26    26    27    1
   27    26    28    1
   28    26    29    1
@<TRIPOS>SUBSTRUCTURE
       1 MOL1            1 RESIDUE      1      MOL     
@<SCITEGIC>MOL_PROPERTY
VM2 Rank
SciTegic.value.IntegerValue
127

@<SCITEGIC>MOL_PROPERTY
Conf_Id
SciTegic.value.IntegerValue
664

@<SCITEGIC>MOL_PROPERTY
Probability
SciTegic.value.DoubleValue
0.01

@<SCITEGIC>MOL_PROPERTY
Sum Probability
SciTegic.value.DoubleValue
99.71

@<SCITEGIC>MOL_PROPERTY
Delta G
SciTegic.value.DoubleValue
4.111

@<SCITEGIC>MOL_PROPERTY
G
SciTegic.value.DoubleValue
37.814

@<SCITEGIC>MOL_PROPERTY
E
SciTegic.value.DoubleValue
0.009

@<SCITEGIC>MOL_PROPERTY
-TS
SciTegic.value.DoubleValue
37.805

@<SCITEGIC>MOL_PROPERTY
U+W
SciTegic.value.DoubleValue
-24.135

@<SCITEGIC>MOL_PROPERTY
U
SciTegic.value.DoubleValue
28.192

@<SCITEGIC>MOL_PROPERTY
W
SciTegic.value.DoubleValue
-52.327

@<SCITEGIC>MOL_PROPERTY
W(PB)
SciTegic.value.DoubleValue
-54.784

@<SCITEGIC>MOL_PROPERTY
W(SA)
SciTegic.value.DoubleValue
2.456

@<SCITEGIC>MOL_PROPERTY
Valence
SciTegic.value.DoubleValue
5.839

@<SCITEGIC>MOL_PROPERTY
Coulomb
SciTegic.value.DoubleValue
21.295

@<SCITEGIC>MOL_PROPERTY
VdW
SciTegic.value.DoubleValue
1.058

@<SCITEGIC>MOL_PROPERTY
VdW6
SciTegic.value.DoubleValue
-10.711

@<SCITEGIC>MOL_PROPERTY
VdW12
SciTegic.value.DoubleValue
11.769

@<SCITEGIC>MOL_PROPERTY
Bond
SciTegic.value.DoubleValue
0.323

@<SCITEGIC>MOL_PROPERTY
Angle
SciTegic.value.DoubleValue
2.126

@<SCITEGIC>MOL_PROPERTY
Pdih
SciTegic.value.DoubleValue
3.390

@<SCITEGIC>MOL_PROPERTY
Idih
SciTegic.value.DoubleValue
0.000

@<SCITEGIC>MOL_PROPERTY
Tether
SciTegic.value.DoubleValue
0.000

@<TRIPOS>MOLECULE
guest-s15_vm2.mol2 : vm2 ligand conformer 128
          29          28           1
SMALL
USER_CHARGES
 
@<TRIPOS>ATOM
       1    C1      21.227071   20.041458   21.235469 C.3        1 MOL1        -0.2426
       2    H1      21.060454   20.367987   22.267210 H          1 MOL1         0.0959
       3    H2      21.994582   19.256812   21.246014 H          1 MOL1         0.0959
       4    H3      21.634120   20.897302   20.681680 H          1 MOL1         0.0959
       5    C2      19.927805   19.536181   20.566158 C.3        1 MOL1        -0.1410
       6    H4      20.159432   19.304118   19.517186 H          1 MOL1         0.0948
       7    H5      19.176510   20.337573   20.538763 H          1 MOL1         0.0948
       8    C3      19.335603   18.264762   21.227988 C.3        1 MOL1        -0.1435
       9    H6      18.864638   17.664948   20.436970 H          1 MOL1         0.0948
      10    H7      20.137242   17.631070   21.629030 H          1 MOL1         0.0948
      11    C4      18.248927   18.531184   22.304966 C.3        1 MOL1        -0.1435
      12    H8      17.834288   17.566762   22.629161 H          1 MOL1         0.0948
      13    H9      17.414055   19.069814   21.835933 H          1 MOL1         0.0948
      14    C5      18.703519   19.320507   23.557717 C.3        1 MOL1        -0.1435
      15    H10     19.040765   20.322733   23.265118 H          1 MOL1         0.0948
      16    H11     17.822685   19.475825   24.194356 H          1 MOL1         0.0948
      17    C6      19.804750   18.598386   24.376105 C.3        1 MOL1        -0.1500
      18    H12     20.675431   18.414936   23.735223 H          1 MOL1         0.0948
      19    H13     19.441195   17.613524   24.697802 H          1 MOL1         0.0948
      20    C7      20.267362   19.409223   25.605714 C.3        1 MOL1         0.1162
      21    H14     20.590863   20.396924   25.263062 H          1 MOL1         0.0910
      22    C8      21.461893   18.718488   26.282632 C.3        1 MOL1        -0.2491
      23    H15     21.818158   19.307519   27.136746 H          1 MOL1         0.0959
      24    H16     21.189149   17.719701   26.645915 H          1 MOL1         0.0959
      25    H17     22.298622   18.610293   25.581230 H          1 MOL1         0.0959
      26    N1      19.159071   19.635812   26.597250 N.4        1 MOL1        -0.5987
      27    H18     19.479273   20.190796   27.396032 H          1 MOL1         0.3605
      28    H19     18.799757   18.750142   26.963281 H          1 MOL1         0.3605
      29    H20     18.373524   20.135515   26.172049 H          1 MOL1         0.3605
@<TRIPOS>BOND
    1     1     2    1
    2     1     3    1
    3     1     4    1
    4     1     5    1
    5     5     6    1
    6     5     7    1
    7     5     8    1
    8     8     9    1
    9     8    10    1
   10     8    11    1
   11    11    12    1
   12    11    13    1
   13    11    14    1
   14    14    15    1
   15    14    16    1
   16    14    17    1
   17    17    18    1
   18    17    19    1
   19    17    20    1
   20    20    21    1
   21    20    22    1
   22    22    23    1
   23    22    24    1
   24    22    25    1
   25    20    26    1
   26    26    27    1
   27    26    28    1
   28    26    29    1
@<TRIPOS>SUBSTRUCTURE
       1 MOL1            1 RESIDUE      1      MOL     
@<SCITEGIC>MOL_PROPERTY
VM2 Rank
SciTegic.value.IntegerValue
128

@<SCITEGIC>MOL_PROPERTY
Conf_Id
SciTegic.value.IntegerValue
1548

@<SCITEGIC>MOL_PROPERTY
Probability
SciTegic.value.DoubleValue
0.01

@<SCITEGIC>MOL_PROPERTY
Sum Probability
SciTegic.value.DoubleValue
99.72

@<SCITEGIC>MOL_PROPERTY
Delta G
SciTegic.value.DoubleValue
4.115

@<SCITEGIC>MOL_PROPERTY
G
SciTegic.value.DoubleValue
37.818

@<SCITEGIC>MOL_PROPERTY
E
SciTegic.value.DoubleValue
-0.405

@<SCITEGIC>MOL_PROPERTY
-TS
SciTegic.value.DoubleValue
38.223

@<SCITEGIC>MOL_PROPERTY
U+W
SciTegic.value.DoubleValue
-24.550

@<SCITEGIC>MOL_PROPERTY
U
SciTegic.value.DoubleValue
27.919

@<SCITEGIC>MOL_PROPERTY
W
SciTegic.value.DoubleValue
-52.468

@<SCITEGIC>MOL_PROPERTY
W(PB)
SciTegic.value.DoubleValue
-54.879

@<SCITEGIC>MOL_PROPERTY
W(SA)
SciTegic.value.DoubleValue
2.411

@<SCITEGIC>MOL_PROPERTY
Valence
SciTegic.value.DoubleValue
6.769

@<SCITEGIC>MOL_PROPERTY
Coulomb
SciTegic.value.DoubleValue
20.295

@<SCITEGIC>MOL_PROPERTY
VdW
SciTegic.value.DoubleValue
0.855

@<SCITEGIC>MOL_PROPERTY
VdW6
SciTegic.value.DoubleValue
-10.882

@<SCITEGIC>MOL_PROPERTY
VdW12
SciTegic.value.DoubleValue
11.736

@<SCITEGIC>MOL_PROPERTY
Bond
SciTegic.value.DoubleValue
0.328

@<SCITEGIC>MOL_PROPERTY
Angle
SciTegic.value.DoubleValue
2.340

@<SCITEGIC>MOL_PROPERTY
Pdih
SciTegic.value.DoubleValue
4.102

@<SCITEGIC>MOL_PROPERTY
Idih
SciTegic.value.DoubleValue
0.000

@<SCITEGIC>MOL_PROPERTY
Tether
SciTegic.value.DoubleValue
0.000

@<TRIPOS>MOLECULE
guest-s15_vm2.mol2 : vm2 ligand conformer 129
          29          28           1
SMALL
USER_CHARGES
 
@<TRIPOS>ATOM
       1    C1      19.084033   19.670662   19.229989 C.3        1 MOL1        -0.2426
       2    H1      18.013787   19.824302   19.420266 H          1 MOL1         0.0959
       3    H2      19.429294   20.479610   18.573157 H          1 MOL1         0.0959
       4    H3      19.202611   18.723188   18.688273 H          1 MOL1         0.0959
       5    C2      19.885432   19.660224   20.548945 C.3        1 MOL1        -0.1410
       6    H4      19.775125   20.636154   21.039977 H          1 MOL1         0.0948
       7    H5      20.953901   19.534248   20.324967 H          1 MOL1         0.0948
       8    C3      19.412870   18.530183   21.493736 C.3        1 MOL1        -0.1435
       9    H6      18.358833   18.687652   21.760890 H          1 MOL1         0.0948
      10    H7      19.454121   17.573833   20.954302 H          1 MOL1         0.0948
      11    C4      20.261024   18.402515   22.782892 C.3        1 MOL1        -0.1435
      12    H8      21.310792   18.222821   22.512985 H          1 MOL1         0.0948
      13    H9      19.930143   17.507403   23.322571 H          1 MOL1         0.0948
      14    C5      20.168742   19.643021   23.708383 C.3        1 MOL1        -0.1435
      15    H10     20.622828   20.497831   23.190320 H          1 MOL1         0.0948
      16    H11     19.118320   19.913539   23.875747 H          1 MOL1         0.0948
      17    C6      20.909351   19.457428   25.062278 C.3        1 MOL1        -0.1500
      18    H12     21.373797   20.414108   25.335413 H          1 MOL1         0.0948
      19    H13     21.745028   18.756096   24.938169 H          1 MOL1         0.0948
      20    C7      20.034083   19.008643   26.258838 C.3        1 MOL1         0.1162
      21    H14     20.696540   18.915740   27.125003 H          1 MOL1         0.0910
      22    C8      19.371584   17.639691   26.035260 C.3        1 MOL1        -0.2491
      23    H15     18.880273   17.297202   26.954192 H          1 MOL1         0.0959
      24    H16     18.610874   17.685281   25.246798 H          1 MOL1         0.0959
      25    H17     20.118383   16.885838   25.757134 H          1 MOL1         0.0959
      26    N1      19.008879   20.043633   26.633679 N.4        1 MOL1        -0.5987
      27    H18     18.481135   19.762927   27.465130 H          1 MOL1         0.3605
      28    H19     18.335692   20.191155   25.877789 H          1 MOL1         0.3605
      29    H20     19.445169   20.947103   26.838806 H          1 MOL1         0.3605
@<TRIPOS>BOND
    1     1     2    1
    2     1     3    1
    3     1     4    1
    4     1     5    1
    5     5     6    1
    6     5     7    1
    7     5     8    1
    8     8     9    1
    9     8    10    1
   10     8    11    1
   11    11    12    1
   12    11    13    1
   13    11    14    1
   14    14    15    1
   15    14    16    1
   16    14    17    1
   17    17    18    1
   18    17    19    1
   19    17    20    1
   20    20    21    1
   21    20    22    1
   22    22    23    1
   23    22    24    1
   24    22    25    1
   25    20    26    1
   26    26    27    1
   27    26    28    1
   28    26    29    1
@<TRIPOS>SUBSTRUCTURE
       1 MOL1            1 RESIDUE      1      MOL     
@<SCITEGIC>MOL_PROPERTY
VM2 Rank
SciTegic.value.IntegerValue
129

@<SCITEGIC>MOL_PROPERTY
Conf_Id
SciTegic.value.IntegerValue
1332

@<SCITEGIC>MOL_PROPERTY
Probability
SciTegic.value.DoubleValue
0.01

@<SCITEGIC>MOL_PROPERTY
Sum Probability
SciTegic.value.DoubleValue
99.73

@<SCITEGIC>MOL_PROPERTY
Delta G
SciTegic.value.DoubleValue
4.116

@<SCITEGIC>MOL_PROPERTY
G
SciTegic.value.DoubleValue
37.819

@<SCITEGIC>MOL_PROPERTY
E
SciTegic.value.DoubleValue
-0.062

@<SCITEGIC>MOL_PROPERTY
-TS
SciTegic.value.DoubleValue
37.881

@<SCITEGIC>MOL_PROPERTY
U+W
SciTegic.value.DoubleValue
-24.207

@<SCITEGIC>MOL_PROPERTY
U
SciTegic.value.DoubleValue
28.146

@<SCITEGIC>MOL_PROPERTY
W
SciTegic.value.DoubleValue
-52.353

@<SCITEGIC>MOL_PROPERTY
W(PB)
SciTegic.value.DoubleValue
-54.817

@<SCITEGIC>MOL_PROPERTY
W(SA)
SciTegic.value.DoubleValue
2.464

@<SCITEGIC>MOL_PROPERTY
Valence
SciTegic.value.DoubleValue
6.843

@<SCITEGIC>MOL_PROPERTY
Coulomb
SciTegic.value.DoubleValue
20.058

@<SCITEGIC>MOL_PROPERTY
VdW
SciTegic.value.DoubleValue
1.246

@<SCITEGIC>MOL_PROPERTY
VdW6
SciTegic.value.DoubleValue
-10.183

@<SCITEGIC>MOL_PROPERTY
VdW12
SciTegic.value.DoubleValue
11.428

@<SCITEGIC>MOL_PROPERTY
Bond
SciTegic.value.DoubleValue
0.324

@<SCITEGIC>MOL_PROPERTY
Angle
SciTegic.value.DoubleValue
2.004

@<SCITEGIC>MOL_PROPERTY
Pdih
SciTegic.value.DoubleValue
4.515

@<SCITEGIC>MOL_PROPERTY
Idih
SciTegic.value.DoubleValue
0.000

@<SCITEGIC>MOL_PROPERTY
Tether
SciTegic.value.DoubleValue
0.000

@<TRIPOS>MOLECULE
guest-s15_vm2.mol2 : vm2 ligand conformer 130
          29          28           1
SMALL
USER_CHARGES
 
@<TRIPOS>ATOM
       1    C1      18.923350   18.455633   19.934696 C.3        1 MOL1        -0.2426
       2    H1      18.019554   18.862901   20.403645 H          1 MOL1         0.0959
       3    H2      19.166193   19.077295   19.063173 H          1 MOL1         0.0959
       4    H3      18.681322   17.448907   19.570225 H          1 MOL1         0.0959
       5    C2      20.108861   18.401090   20.925449 C.3        1 MOL1        -0.1410
       6    H4      20.954514   17.904903   20.429177 H          1 MOL1         0.0948
       7    H5      19.842403   17.767100   21.779756 H          1 MOL1         0.0948
       8    C3      20.569990   19.802732   21.401986 C.3        1 MOL1        -0.1435
       9    H6      21.552266   19.721968   21.887303 H          1 MOL1         0.0948
      10    H7      20.732928   20.430327   20.514955 H          1 MOL1         0.0948
      11    C4      19.579340   20.527787   22.353341 C.3        1 MOL1        -0.1435
      12    H8      18.546624   20.214267   22.156508 H          1 MOL1         0.0948
      13    H9      19.609238   21.601270   22.121042 H          1 MOL1         0.0948
      14    C5      19.896528   20.369275   23.862783 C.3        1 MOL1        -0.1435
      15    H10     20.890891   20.787263   24.072420 H          1 MOL1         0.0948
      16    H11     19.181129   20.985824   24.422302 H          1 MOL1         0.0948
      17    C6      19.835111   18.908150   24.373986 C.3        1 MOL1        -0.1500
      18    H12     20.609715   18.320906   23.865774 H          1 MOL1         0.0948
      19    H13     18.868038   18.460383   24.109433 H          1 MOL1         0.0948
      20    C7      20.063154   18.791003   25.896723 C.3        1 MOL1         0.1162
      21    H14     21.010523   19.281501   26.140741 H          1 MOL1         0.0910
      22    C8      20.164244   17.313649   26.308822 C.3        1 MOL1        -0.2491
      23    H15     20.360409   17.223039   27.384331 H          1 MOL1         0.0959
      24    H16     19.235478   16.774402   26.083957 H          1 MOL1         0.0959
      25    H17     20.985418   16.815829   25.778155 H          1 MOL1         0.0959
      26    N1      18.995422   19.486682   26.696214 N.4        1 MOL1        -0.5987
      27    H18     19.173126   19.412222   27.701944 H          1 MOL1         0.3605
      28    H19     18.072465   19.082310   26.516986 H          1 MOL1         0.3605
      29    H20     18.945747   20.482962   26.467145 H          1 MOL1         0.3605
@<TRIPOS>BOND
    1     1     2    1
    2     1     3    1
    3     1     4    1
    4     1     5    1
    5     5     6    1
    6     5     7    1
    7     5     8    1
    8     8     9    1
    9     8    10    1
   10     8    11    1
   11    11    12    1
   12    11    13    1
   13    11    14    1
   14    14    15    1
   15    14    16    1
   16    14    17    1
   17    17    18    1
   18    17    19    1
   19    17    20    1
   20    20    21    1
   21    20    22    1
   22    22    23    1
   23    22    24    1
   24    22    25    1
   25    20    26    1
   26    26    27    1
   27    26    28    1
   28    26    29    1
@<TRIPOS>SUBSTRUCTURE
       1 MOL1            1 RESIDUE      1      MOL     
@<SCITEGIC>MOL_PROPERTY
VM2 Rank
SciTegic.value.IntegerValue
130

@<SCITEGIC>MOL_PROPERTY
Conf_Id
SciTegic.value.IntegerValue
1202

@<SCITEGIC>MOL_PROPERTY
Probability
SciTegic.value.DoubleValue
0.01

@<SCITEGIC>MOL_PROPERTY
Sum Probability
SciTegic.value.DoubleValue
99.74

@<SCITEGIC>MOL_PROPERTY
Delta G
SciTegic.value.DoubleValue
4.153

@<SCITEGIC>MOL_PROPERTY
G
SciTegic.value.DoubleValue
37.856

@<SCITEGIC>MOL_PROPERTY
E
SciTegic.value.DoubleValue
0.040

@<SCITEGIC>MOL_PROPERTY
-TS
SciTegic.value.DoubleValue
37.816

@<SCITEGIC>MOL_PROPERTY
U+W
SciTegic.value.DoubleValue
-24.104

@<SCITEGIC>MOL_PROPERTY
U
SciTegic.value.DoubleValue
28.258

@<SCITEGIC>MOL_PROPERTY
W
SciTegic.value.DoubleValue
-52.363

@<SCITEGIC>MOL_PROPERTY
W(PB)
SciTegic.value.DoubleValue
-54.796

@<SCITEGIC>MOL_PROPERTY
W(SA)
SciTegic.value.DoubleValue
2.433

@<SCITEGIC>MOL_PROPERTY
Valence
SciTegic.value.DoubleValue
6.944

@<SCITEGIC>MOL_PROPERTY
Coulomb
SciTegic.value.DoubleValue
20.034

@<SCITEGIC>MOL_PROPERTY
VdW
SciTegic.value.DoubleValue
1.280

@<SCITEGIC>MOL_PROPERTY
VdW6
SciTegic.value.DoubleValue
-10.157

@<SCITEGIC>MOL_PROPERTY
VdW12
SciTegic.value.DoubleValue
11.436

@<SCITEGIC>MOL_PROPERTY
Bond
SciTegic.value.DoubleValue
0.326

@<SCITEGIC>MOL_PROPERTY
Angle
SciTegic.value.DoubleValue
1.949

@<SCITEGIC>MOL_PROPERTY
Pdih
SciTegic.value.DoubleValue
4.669

@<SCITEGIC>MOL_PROPERTY
Idih
SciTegic.value.DoubleValue
0.000

@<SCITEGIC>MOL_PROPERTY
Tether
SciTegic.value.DoubleValue
0.000

@<TRIPOS>MOLECULE
guest-s15_vm2.mol2 : vm2 ligand conformer 131
          29          28           1
SMALL
USER_CHARGES
 
@<TRIPOS>ATOM
       1    C1      21.319152   19.147238   20.818244 C.3        1 MOL1        -0.2426
       2    H1      21.614408   19.325930   21.858621 H          1 MOL1         0.0959
       3    H2      21.225818   18.065026   20.660178 H          1 MOL1         0.0959
       4    H3      22.134890   19.511238   20.180322 H          1 MOL1         0.0959
       5    C2      20.001987   19.876738   20.477168 C.3        1 MOL1        -0.1410
       6    H4      19.847777   19.831647   19.390006 H          1 MOL1         0.0948
       7    H5      20.099695   20.942612   20.726200 H          1 MOL1         0.0948
       8    C3      18.746925   19.291594   21.173458 C.3        1 MOL1        -0.1435
       9    H6      17.875763   19.848803   20.802023 H          1 MOL1         0.0948
      10    H7      18.589169   18.251943   20.855425 H          1 MOL1         0.0948
      11    C4      18.753414   19.387937   22.721574 C.3        1 MOL1        -0.1435
      12    H8      17.720591   19.549310   23.060016 H          1 MOL1         0.0948
      13    H9      19.319189   20.275301   23.034763 H          1 MOL1         0.0948
      14    C5      19.294156   18.113020   23.418989 C.3        1 MOL1        -0.1435
      15    H10     18.731262   17.241978   23.056552 H          1 MOL1         0.0948
      16    H11     20.337359   17.929443   23.139375 H          1 MOL1         0.0948
      17    C6      19.165048   18.164459   24.963326 C.3        1 MOL1        -0.1500
      18    H12     19.543531   17.224026   25.385342 H          1 MOL1         0.0948
      19    H13     18.098293   18.205099   25.220173 H          1 MOL1         0.0948
      20    C7      19.883414   19.354272   25.642268 C.3        1 MOL1         0.1162
      21    H14     19.500252   20.282699   25.208833 H          1 MOL1         0.0910
      22    C8      21.406589   19.308372   25.428544 C.3        1 MOL1        -0.2491
      23    H15     21.831139   18.367234   25.799551 H          1 MOL1         0.0959
      24    H16     21.661834   19.405911   24.367458 H          1 MOL1         0.0959
      25    H17     21.896366   20.135011   25.957750 H          1 MOL1         0.0959
      26    N1      19.565315   19.412370   27.110429 N.4        1 MOL1        -0.5987
      27    H18     19.896287   18.575427   27.597979 H          1 MOL1         0.3605
      28    H19     18.557226   19.486149   27.275265 H          1 MOL1         0.3605
      29    H20     20.007143   20.220946   27.557253 H          1 MOL1         0.3605
@<TRIPOS>BOND
    1     1     2    1
    2     1     3    1
    3     1     4    1
    4     1     5    1
    5     5     6    1
    6     5     7    1
    7     5     8    1
    8     8     9    1
    9     8    10    1
   10     8    11    1
   11    11    12    1
   12    11    13    1
   13    11    14    1
   14    14    15    1
   15    14    16    1
   16    14    17    1
   17    17    18    1
   18    17    19    1
   19    17    20    1
   20    20    21    1
   21    20    22    1
   22    22    23    1
   23    22    24    1
   24    22    25    1
   25    20    26    1
   26    26    27    1
   27    26    28    1
   28    26    29    1
@<TRIPOS>SUBSTRUCTURE
       1 MOL1            1 RESIDUE      1      MOL     
@<SCITEGIC>MOL_PROPERTY
VM2 Rank
SciTegic.value.IntegerValue
131

@<SCITEGIC>MOL_PROPERTY
Conf_Id
SciTegic.value.IntegerValue
1228

@<SCITEGIC>MOL_PROPERTY
Probability
SciTegic.value.DoubleValue
0.01

@<SCITEGIC>MOL_PROPERTY
Sum Probability
SciTegic.value.DoubleValue
99.75

@<SCITEGIC>MOL_PROPERTY
Delta G
SciTegic.value.DoubleValue
4.157

@<SCITEGIC>MOL_PROPERTY
G
SciTegic.value.DoubleValue
37.859

@<SCITEGIC>MOL_PROPERTY
E
SciTegic.value.DoubleValue
-0.264

@<SCITEGIC>MOL_PROPERTY
-TS
SciTegic.value.DoubleValue
38.123

@<SCITEGIC>MOL_PROPERTY
U+W
SciTegic.value.DoubleValue
-24.408

@<SCITEGIC>MOL_PROPERTY
U
SciTegic.value.DoubleValue
28.098

@<SCITEGIC>MOL_PROPERTY
W
SciTegic.value.DoubleValue
-52.506

@<SCITEGIC>MOL_PROPERTY
W(PB)
SciTegic.value.DoubleValue
-54.915

@<SCITEGIC>MOL_PROPERTY
W(SA)
SciTegic.value.DoubleValue
2.409

@<SCITEGIC>MOL_PROPERTY
Valence
SciTegic.value.DoubleValue
6.979

@<SCITEGIC>MOL_PROPERTY
Coulomb
SciTegic.value.DoubleValue
20.251

@<SCITEGIC>MOL_PROPERTY
VdW
SciTegic.value.DoubleValue
0.868

@<SCITEGIC>MOL_PROPERTY
VdW6
SciTegic.value.DoubleValue
-10.914

@<SCITEGIC>MOL_PROPERTY
VdW12
SciTegic.value.DoubleValue
11.782

@<SCITEGIC>MOL_PROPERTY
Bond
SciTegic.value.DoubleValue
0.321

@<SCITEGIC>MOL_PROPERTY
Angle
SciTegic.value.DoubleValue
2.264

@<SCITEGIC>MOL_PROPERTY
Pdih
SciTegic.value.DoubleValue
4.394

@<SCITEGIC>MOL_PROPERTY
Idih
SciTegic.value.DoubleValue
0.000

@<SCITEGIC>MOL_PROPERTY
Tether
SciTegic.value.DoubleValue
0.000

@<TRIPOS>MOLECULE
guest-s15_vm2.mol2 : vm2 ligand conformer 132
          29          28           1
SMALL
USER_CHARGES
 
@<TRIPOS>ATOM
       1    C1      18.503288   19.336975   20.050284 C.3        1 MOL1        -0.2426
       2    H1      17.930498   19.010409   20.925234 H          1 MOL1         0.0959
       3    H2      18.228481   20.378079   19.836654 H          1 MOL1         0.0959
       4    H3      18.183394   18.726361   19.196055 H          1 MOL1         0.0959
       5    C2      20.028338   19.203524   20.269574 C.3        1 MOL1        -0.1410
       6    H4      20.532384   19.530566   19.349329 H          1 MOL1         0.0948
       7    H5      20.304200   18.148649   20.406279 H          1 MOL1         0.0948
       8    C3      20.555647   20.056684   21.451868 C.3        1 MOL1        -0.1435
       9    H6      21.547223   20.443119   21.178305 H          1 MOL1         0.0948
      10    H7      19.922183   20.943189   21.593004 H          1 MOL1         0.0948
      11    C4      20.707784   19.291593   22.791902 C.3        1 MOL1        -0.1435
      12    H8      21.155327   19.979670   23.520574 H          1 MOL1         0.0948
      13    H9      21.427946   18.471892   22.663032 H          1 MOL1         0.0948
      14    C5      19.381361   18.725319   23.355845 C.3        1 MOL1        -0.1435
      15    H10     18.627158   19.521475   23.408676 H          1 MOL1         0.0948
      16    H11     18.988339   17.972066   22.661205 H          1 MOL1         0.0948
      17    C6      19.543011   18.050931   24.742676 C.3        1 MOL1        -0.1500
      18    H12     20.239118   17.207090   24.646141 H          1 MOL1         0.0948
      19    H13     18.578899   17.619498   25.043061 H          1 MOL1         0.0948
      20    C7      20.046999   18.994493   25.857943 C.3        1 MOL1         0.1162
      21    H14     21.021588   19.392115   25.560514 H          1 MOL1         0.0910
      22    C8      20.228745   18.219115   27.172300 C.3        1 MOL1        -0.2491
      23    H15     20.624540   18.874382   27.958017 H          1 MOL1         0.0959
      24    H16     19.276192   17.802158   27.522590 H          1 MOL1         0.0959
      25    H17     20.936642   17.391180   27.041331 H          1 MOL1         0.0959
      26    N1      19.140828   20.177365   26.061608 N.4        1 MOL1        -0.5987
      27    H18     19.501240   20.805408   26.785650 H          1 MOL1         0.3605
      28    H19     18.203371   19.883448   26.348370 H          1 MOL1         0.3605
      29    H20     19.044321   20.722626   25.200583 H          1 MOL1         0.3605
@<TRIPOS>BOND
    1     1     2    1
    2     1     3    1
    3     1     4    1
    4     1     5    1
    5     5     6    1
    6     5     7    1
    7     5     8    1
    8     8     9    1
    9     8    10    1
   10     8    11    1
   11    11    12    1
   12    11    13    1
   13    11    14    1
   14    14    15    1
   15    14    16    1
   16    14    17    1
   17    17    18    1
   18    17    19    1
   19    17    20    1
   20    20    21    1
   21    20    22    1
   22    22    23    1
   23    22    24    1
   24    22    25    1
   25    20    26    1
   26    26    27    1
   27    26    28    1
   28    26    29    1
@<TRIPOS>SUBSTRUCTURE
       1 MOL1            1 RESIDUE      1      MOL     
@<SCITEGIC>MOL_PROPERTY
VM2 Rank
SciTegic.value.IntegerValue
132

@<SCITEGIC>MOL_PROPERTY
Conf_Id
SciTegic.value.IntegerValue
981

@<SCITEGIC>MOL_PROPERTY
Probability
SciTegic.value.DoubleValue
0.01

@<SCITEGIC>MOL_PROPERTY
Sum Probability
SciTegic.value.DoubleValue
99.76

@<SCITEGIC>MOL_PROPERTY
Delta G
SciTegic.value.DoubleValue
4.168

@<SCITEGIC>MOL_PROPERTY
G
SciTegic.value.DoubleValue
37.870

@<SCITEGIC>MOL_PROPERTY
E
SciTegic.value.DoubleValue
-0.037

@<SCITEGIC>MOL_PROPERTY
-TS
SciTegic.value.DoubleValue
37.907

@<SCITEGIC>MOL_PROPERTY
U+W
SciTegic.value.DoubleValue
-24.181

@<SCITEGIC>MOL_PROPERTY
U
SciTegic.value.DoubleValue
28.057

@<SCITEGIC>MOL_PROPERTY
W
SciTegic.value.DoubleValue
-52.238

@<SCITEGIC>MOL_PROPERTY
W(PB)
SciTegic.value.DoubleValue
-54.698

@<SCITEGIC>MOL_PROPERTY
W(SA)
SciTegic.value.DoubleValue
2.460

@<SCITEGIC>MOL_PROPERTY
Valence
SciTegic.value.DoubleValue
6.543

@<SCITEGIC>MOL_PROPERTY
Coulomb
SciTegic.value.DoubleValue
20.387

@<SCITEGIC>MOL_PROPERTY
VdW
SciTegic.value.DoubleValue
1.127

@<SCITEGIC>MOL_PROPERTY
VdW6
SciTegic.value.DoubleValue
-10.342

@<SCITEGIC>MOL_PROPERTY
VdW12
SciTegic.value.DoubleValue
11.469

@<SCITEGIC>MOL_PROPERTY
Bond
SciTegic.value.DoubleValue
0.308

@<SCITEGIC>MOL_PROPERTY
Angle
SciTegic.value.DoubleValue
1.938

@<SCITEGIC>MOL_PROPERTY
Pdih
SciTegic.value.DoubleValue
4.297

@<SCITEGIC>MOL_PROPERTY
Idih
SciTegic.value.DoubleValue
0.000

@<SCITEGIC>MOL_PROPERTY
Tether
SciTegic.value.DoubleValue
0.000

@<TRIPOS>MOLECULE
guest-s15_vm2.mol2 : vm2 ligand conformer 133
          29          28           1
SMALL
USER_CHARGES
 
@<TRIPOS>ATOM
       1    C1      19.559970   19.233595   19.127200 C.3        1 MOL1        -0.2426
       2    H1      19.578590   18.145559   18.982021 H          1 MOL1         0.0959
       3    H2      18.547471   19.591797   18.899691 H          1 MOL1         0.0959
       4    H3      20.247611   19.682770   18.398894 H          1 MOL1         0.0959
       5    C2      19.970978   19.607554   20.567108 C.3        1 MOL1        -0.1410
       6    H4      19.970827   20.701380   20.672884 H          1 MOL1         0.0948
       7    H5      21.001305   19.270898   20.740393 H          1 MOL1         0.0948
       8    C3      19.017021   18.981413   21.612041 C.3        1 MOL1        -0.1435
       9    H6      17.985419   19.266927   21.363761 H          1 MOL1         0.0948
      10    H7      19.057658   17.885553   21.543522 H          1 MOL1         0.0948
      11    C4      19.308431   19.423412   23.067411 C.3        1 MOL1        -0.1435
      12    H8      18.481445   19.064763   23.691059 H          1 MOL1         0.0948
      13    H9      19.300697   20.520489   23.126453 H          1 MOL1         0.0948
      14    C5      20.645087   18.872581   23.625307 C.3        1 MOL1        -0.1435
      15    H10     20.620619   17.774742   23.624785 H          1 MOL1         0.0948
      16    H11     21.461517   19.150945   22.947526 H          1 MOL1         0.0948
      17    C6      21.023783   19.396835   25.039495 C.3        1 MOL1        -0.1500
      18    H12     21.163013   20.485001   24.997168 H          1 MOL1         0.0948
      19    H13     22.011002   18.987725   25.291617 H          1 MOL1         0.0948
      20    C7      20.067656   19.057290   26.211485 C.3        1 MOL1         0.1162
      21    H14     20.605360   19.294546   27.134676 H          1 MOL1         0.0910
      22    C8      19.706542   17.562626   26.263673 C.3        1 MOL1        -0.2491
      23    H15     20.612456   16.943880   26.259164 H          1 MOL1         0.0959
      24    H16     19.151278   17.333433   27.181412 H          1 MOL1         0.0959
      25    H17     19.083116   17.266504   25.411579 H          1 MOL1         0.0959
      26    N1      18.836533   19.920693   26.240280 N.4        1 MOL1        -0.5987
      27    H18     18.255630   19.715043   27.058214 H          1 MOL1         0.3605
      28    H19     18.260795   19.775742   25.408506 H          1 MOL1         0.3605
      29    H20     19.077875   20.915142   26.279371 H          1 MOL1         0.3605
@<TRIPOS>BOND
    1     1     2    1
    2     1     3    1
    3     1     4    1
    4     1     5    1
    5     5     6    1
    6     5     7    1
    7     5     8    1
    8     8     9    1
    9     8    10    1
   10     8    11    1
   11    11    12    1
   12    11    13    1
   13    11    14    1
   14    14    15    1
   15    14    16    1
   16    14    17    1
   17    17    18    1
   18    17    19    1
   19    17    20    1
   20    20    21    1
   21    20    22    1
   22    22    23    1
   23    22    24    1
   24    22    25    1
   25    20    26    1
   26    26    27    1
   27    26    28    1
   28    26    29    1
@<TRIPOS>SUBSTRUCTURE
       1 MOL1            1 RESIDUE      1      MOL     
@<SCITEGIC>MOL_PROPERTY
VM2 Rank
SciTegic.value.IntegerValue
133

@<SCITEGIC>MOL_PROPERTY
Conf_Id
SciTegic.value.IntegerValue
1023

@<SCITEGIC>MOL_PROPERTY
Probability
SciTegic.value.DoubleValue
0.01

@<SCITEGIC>MOL_PROPERTY
Sum Probability
SciTegic.value.DoubleValue
99.76

@<SCITEGIC>MOL_PROPERTY
Delta G
SciTegic.value.DoubleValue
4.176

@<SCITEGIC>MOL_PROPERTY
G
SciTegic.value.DoubleValue
37.878

@<SCITEGIC>MOL_PROPERTY
E
SciTegic.value.DoubleValue
-0.108

@<SCITEGIC>MOL_PROPERTY
-TS
SciTegic.value.DoubleValue
37.987

@<SCITEGIC>MOL_PROPERTY
U+W
SciTegic.value.DoubleValue
-24.253

@<SCITEGIC>MOL_PROPERTY
U
SciTegic.value.DoubleValue
28.089

@<SCITEGIC>MOL_PROPERTY
W
SciTegic.value.DoubleValue
-52.342

@<SCITEGIC>MOL_PROPERTY
W(PB)
SciTegic.value.DoubleValue
-54.818

@<SCITEGIC>MOL_PROPERTY
W(SA)
SciTegic.value.DoubleValue
2.476

@<SCITEGIC>MOL_PROPERTY
Valence
SciTegic.value.DoubleValue
5.754

@<SCITEGIC>MOL_PROPERTY
Coulomb
SciTegic.value.DoubleValue
21.248

@<SCITEGIC>MOL_PROPERTY
VdW
SciTegic.value.DoubleValue
1.087

@<SCITEGIC>MOL_PROPERTY
VdW6
SciTegic.value.DoubleValue
-10.617

@<SCITEGIC>MOL_PROPERTY
VdW12
SciTegic.value.DoubleValue
11.704

@<SCITEGIC>MOL_PROPERTY
Bond
SciTegic.value.DoubleValue
0.344

@<SCITEGIC>MOL_PROPERTY
Angle
SciTegic.value.DoubleValue
2.548

@<SCITEGIC>MOL_PROPERTY
Pdih
SciTegic.value.DoubleValue
2.862

@<SCITEGIC>MOL_PROPERTY
Idih
SciTegic.value.DoubleValue
0.000

@<SCITEGIC>MOL_PROPERTY
Tether
SciTegic.value.DoubleValue
0.000

@<TRIPOS>MOLECULE
guest-s15_vm2.mol2 : vm2 ligand conformer 134
          29          28           1
SMALL
USER_CHARGES
 
@<TRIPOS>ATOM
       1    C1      18.125154   19.276362   20.443293 C.3        1 MOL1        -0.2426
       2    H1      17.690930   19.663364   21.373217 H          1 MOL1         0.0959
       3    H2      17.563733   19.717306   19.609436 H          1 MOL1         0.0959
       4    H3      17.969178   18.190107   20.415585 H          1 MOL1         0.0959
       5    C2      19.626397   19.625371   20.328007 C.3        1 MOL1        -0.1410
       6    H4      19.758999   20.714313   20.393922 H          1 MOL1         0.0948
       7    H5      19.981784   19.332407   19.330195 H          1 MOL1         0.0948
       8    C3      20.505488   18.925413   21.392345 C.3        1 MOL1        -0.1435
       9    H6      20.384865   17.836449   21.309386 H          1 MOL1         0.0948
      10    H7      21.559639   19.137841   21.166748 H          1 MOL1         0.0948
      11    C4      20.196327   19.376002   22.839949 C.3        1 MOL1        -0.1435
      12    H8      19.163010   19.106286   23.083782 H          1 MOL1         0.0948
      13    H9      20.278933   20.469461   22.907435 H          1 MOL1         0.0948
      14    C5      21.155040   18.717324   23.860209 C.3        1 MOL1        -0.1435
      15    H10     21.003412   17.629611   23.860260 H          1 MOL1         0.0948
      16    H11     22.188816   18.872412   23.521946 H          1 MOL1         0.0948
      17    C6      21.043793   19.271475   25.308692 C.3        1 MOL1        -0.1500
      18    H12     21.322756   20.333288   25.312818 H          1 MOL1         0.0948
      19    H13     21.806698   18.768346   25.917260 H          1 MOL1         0.0948
      20    C7      19.684307   19.106270   26.034843 C.3        1 MOL1         0.1162
      21    H14     19.859549   19.341038   27.089298 H          1 MOL1         0.0910
      22    C8      19.153168   17.663792   25.968911 C.3        1 MOL1        -0.2491
      23    H15     18.865169   17.384205   24.948461 H          1 MOL1         0.0959
      24    H16     19.912787   16.953915   26.319054 H          1 MOL1         0.0959
      25    H17     18.270380   17.549861   26.609848 H          1 MOL1         0.0959
      26    N1      18.646327   20.093992   25.577751 N.4        1 MOL1        -0.5987
      27    H18     17.778515   19.997815   26.112999 H          1 MOL1         0.3605
      28    H19     18.417565   19.961853   24.590491 H          1 MOL1         0.3605
      29    H20     18.971351   21.058234   25.693487 H          1 MOL1         0.3605
@<TRIPOS>BOND
    1     1     2    1
    2     1     3    1
    3     1     4    1
    4     1     5    1
    5     5     6    1
    6     5     7    1
    7     5     8    1
    8     8     9    1
    9     8    10    1
   10     8    11    1
   11    11    12    1
   12    11    13    1
   13    11    14    1
   14    14    15    1
   15    14    16    1
   16    14    17    1
   17    17    18    1
   18    17    19    1
   19    17    20    1
   20    20    21    1
   21    20    22    1
   22    22    23    1
   23    22    24    1
   24    22    25    1
   25    20    26    1
   26    26    27    1
   27    26    28    1
   28    26    29    1
@<TRIPOS>SUBSTRUCTURE
       1 MOL1            1 RESIDUE      1      MOL     
@<SCITEGIC>MOL_PROPERTY
VM2 Rank
SciTegic.value.IntegerValue
134

@<SCITEGIC>MOL_PROPERTY
Conf_Id
SciTegic.value.IntegerValue
1015

@<SCITEGIC>MOL_PROPERTY
Probability
SciTegic.value.DoubleValue
0.01

@<SCITEGIC>MOL_PROPERTY
Sum Probability
SciTegic.value.DoubleValue
99.77

@<SCITEGIC>MOL_PROPERTY
Delta G
SciTegic.value.DoubleValue
4.208

@<SCITEGIC>MOL_PROPERTY
G
SciTegic.value.DoubleValue
37.911

@<SCITEGIC>MOL_PROPERTY
E
SciTegic.value.DoubleValue
-0.173

@<SCITEGIC>MOL_PROPERTY
-TS
SciTegic.value.DoubleValue
38.083

@<SCITEGIC>MOL_PROPERTY
U+W
SciTegic.value.DoubleValue
-24.317

@<SCITEGIC>MOL_PROPERTY
U
SciTegic.value.DoubleValue
28.045

@<SCITEGIC>MOL_PROPERTY
W
SciTegic.value.DoubleValue
-52.362

@<SCITEGIC>MOL_PROPERTY
W(PB)
SciTegic.value.DoubleValue
-54.808

@<SCITEGIC>MOL_PROPERTY
W(SA)
SciTegic.value.DoubleValue
2.446

@<SCITEGIC>MOL_PROPERTY
Valence
SciTegic.value.DoubleValue
5.555

@<SCITEGIC>MOL_PROPERTY
Coulomb
SciTegic.value.DoubleValue
21.509

@<SCITEGIC>MOL_PROPERTY
VdW
SciTegic.value.DoubleValue
0.981

@<SCITEGIC>MOL_PROPERTY
VdW6
SciTegic.value.DoubleValue
-10.796

@<SCITEGIC>MOL_PROPERTY
VdW12
SciTegic.value.DoubleValue
11.777

@<SCITEGIC>MOL_PROPERTY
Bond
SciTegic.value.DoubleValue
0.331

@<SCITEGIC>MOL_PROPERTY
Angle
SciTegic.value.DoubleValue
2.400

@<SCITEGIC>MOL_PROPERTY
Pdih
SciTegic.value.DoubleValue
2.824

@<SCITEGIC>MOL_PROPERTY
Idih
SciTegic.value.DoubleValue
0.000

@<SCITEGIC>MOL_PROPERTY
Tether
SciTegic.value.DoubleValue
0.000

@<TRIPOS>MOLECULE
guest-s15_vm2.mol2 : vm2 ligand conformer 135
          29          28           1
SMALL
USER_CHARGES
 
@<TRIPOS>ATOM
       1    C1      20.226072   21.044695   20.912981 C.3        1 MOL1        -0.2426
       2    H1      20.693304   20.752772   19.963417 H          1 MOL1         0.0959
       3    H2      19.585625   21.915033   20.719762 H          1 MOL1         0.0959
       4    H3      21.020446   21.357264   21.603244 H          1 MOL1         0.0959
       5    C2      19.401925   19.882866   21.506024 C.3        1 MOL1        -0.1410
       6    H4      18.595812   19.614044   20.809220 H          1 MOL1         0.0948
       7    H5      18.918878   20.224536   22.429287 H          1 MOL1         0.0948
       8    C3      20.283915   18.642604   21.782378 C.3        1 MOL1        -0.1435
       9    H6      20.757658   18.332829   20.840665 H          1 MOL1         0.0948
      10    H7      21.110218   18.902074   22.455796 H          1 MOL1         0.0948
      11    C4      19.495619   17.434823   22.347847 C.3        1 MOL1        -0.1435
      12    H8      20.181064   16.580641   22.435658 H          1 MOL1         0.0948
      13    H9      18.739268   17.132559   21.610421 H          1 MOL1         0.0948
      14    C5      18.793306   17.652502   23.715631 C.3        1 MOL1        -0.1435
      15    H10     18.006657   18.411908   23.628475 H          1 MOL1         0.0948
      16    H11     18.265779   16.720253   23.960373 H          1 MOL1         0.0948
      17    C6      19.753303   17.974821   24.893212 C.3        1 MOL1        -0.1500
      18    H12     20.679266   17.397827   24.768767 H          1 MOL1         0.0948
      19    H13     19.300702   17.617122   25.827615 H          1 MOL1         0.0948
      20    C7      20.087581   19.474946   25.059025 C.3        1 MOL1         0.1162
      21    H14     20.436463   19.868120   24.101419 H          1 MOL1         0.0910
      22    C8      21.211832   19.660684   26.089992 C.3        1 MOL1        -0.2491
      23    H15     21.472736   20.721175   26.193376 H          1 MOL1         0.0959
      24    H16     20.912555   19.284205   27.076218 H          1 MOL1         0.0959
      25    H17     22.117336   19.124431   25.779772 H          1 MOL1         0.0959
      26    N1      18.882447   20.288059   25.446908 N.4        1 MOL1        -0.5987
      27    H18     19.111605   21.283171   25.524112 H          1 MOL1         0.3605
      28    H19     18.509152   19.989470   26.351994 H          1 MOL1         0.3605
      29    H20     18.130565   20.196662   24.759044 H          1 MOL1         0.3605
@<TRIPOS>BOND
    1     1     2    1
    2     1     3    1
    3     1     4    1
    4     1     5    1
    5     5     6    1
    6     5     7    1
    7     5     8    1
    8     8     9    1
    9     8    10    1
   10     8    11    1
   11    11    12    1
   12    11    13    1
   13    11    14    1
   14    14    15    1
   15    14    16    1
   16    14    17    1
   17    17    18    1
   18    17    19    1
   19    17    20    1
   20    20    21    1
   21    20    22    1
   22    22    23    1
   23    22    24    1
   24    22    25    1
   25    20    26    1
   26    26    27    1
   27    26    28    1
   28    26    29    1
@<TRIPOS>SUBSTRUCTURE
       1 MOL1            1 RESIDUE      1      MOL     
@<SCITEGIC>MOL_PROPERTY
VM2 Rank
SciTegic.value.IntegerValue
135

@<SCITEGIC>MOL_PROPERTY
Conf_Id
SciTegic.value.IntegerValue
1665

@<SCITEGIC>MOL_PROPERTY
Probability
SciTegic.value.DoubleValue
0.01

@<SCITEGIC>MOL_PROPERTY
Sum Probability
SciTegic.value.DoubleValue
99.78

@<SCITEGIC>MOL_PROPERTY
Delta G
SciTegic.value.DoubleValue
4.227

@<SCITEGIC>MOL_PROPERTY
G
SciTegic.value.DoubleValue
37.929

@<SCITEGIC>MOL_PROPERTY
E
SciTegic.value.DoubleValue
-0.490

@<SCITEGIC>MOL_PROPERTY
-TS
SciTegic.value.DoubleValue
38.419

@<SCITEGIC>MOL_PROPERTY
U+W
SciTegic.value.DoubleValue
-24.634

@<SCITEGIC>MOL_PROPERTY
U
SciTegic.value.DoubleValue
28.071

@<SCITEGIC>MOL_PROPERTY
W
SciTegic.value.DoubleValue
-52.705

@<SCITEGIC>MOL_PROPERTY
W(PB)
SciTegic.value.DoubleValue
-55.097

@<SCITEGIC>MOL_PROPERTY
W(SA)
SciTegic.value.DoubleValue
2.392

@<SCITEGIC>MOL_PROPERTY
Valence
SciTegic.value.DoubleValue
6.292

@<SCITEGIC>MOL_PROPERTY
Coulomb
SciTegic.value.DoubleValue
21.484

@<SCITEGIC>MOL_PROPERTY
VdW
SciTegic.value.DoubleValue
0.295

@<SCITEGIC>MOL_PROPERTY
VdW6
SciTegic.value.DoubleValue
-11.563

@<SCITEGIC>MOL_PROPERTY
VdW12
SciTegic.value.DoubleValue
11.858

@<SCITEGIC>MOL_PROPERTY
Bond
SciTegic.value.DoubleValue
0.313

@<SCITEGIC>MOL_PROPERTY
Angle
SciTegic.value.DoubleValue
2.278

@<SCITEGIC>MOL_PROPERTY
Pdih
SciTegic.value.DoubleValue
3.700

@<SCITEGIC>MOL_PROPERTY
Idih
SciTegic.value.DoubleValue
0.000

@<SCITEGIC>MOL_PROPERTY
Tether
SciTegic.value.DoubleValue
0.000

@<TRIPOS>MOLECULE
guest-s15_vm2.mol2 : vm2 ligand conformer 136
          29          28           1
SMALL
USER_CHARGES
 
@<TRIPOS>ATOM
       1    C1      19.216502   17.833910   20.800223 C.3        1 MOL1        -0.2426
       2    H1      19.740790   17.802306   19.836365 H          1 MOL1         0.0959
       3    H2      19.879925   17.408666   21.562710 H          1 MOL1         0.0959
       4    H3      18.336434   17.182311   20.724984 H          1 MOL1         0.0959
       5    C2      18.792578   19.278345   21.151206 C.3        1 MOL1        -0.1410
       6    H4      18.251851   19.296386   22.105659 H          1 MOL1         0.0948
       7    H5      18.072234   19.623798   20.396657 H          1 MOL1         0.0948
       8    C3      19.977709   20.273769   21.187893 C.3        1 MOL1        -0.1435
       9    H6      20.438400   20.304249   20.190922 H          1 MOL1         0.0948
      10    H7      19.584219   21.284397   21.363496 H          1 MOL1         0.0948
      11    C4      21.086683   19.978459   22.233722 C.3        1 MOL1        -0.1435
      12    H8      21.879459   20.723987   22.082123 H          1 MOL1         0.0948
      13    H9      21.561376   19.008878   22.033821 H          1 MOL1         0.0948
      14    C5      20.629737   20.069830   23.713601 C.3        1 MOL1        -0.1435
      15    H10     21.467471   20.461340   24.307389 H          1 MOL1         0.0948
      16    H11     19.820997   20.806552   23.805888 H          1 MOL1         0.0948
      17    C6      20.208569   18.707130   24.322510 C.3        1 MOL1        -0.1500
      18    H12     21.028434   17.990012   24.183719 H          1 MOL1         0.0948
      19    H13     19.343371   18.295641   23.792003 H          1 MOL1         0.0948
      20    C7      19.883132   18.800144   25.828656 C.3        1 MOL1         0.1162
      21    H14     20.751001   19.225813   26.341715 H          1 MOL1         0.0910
      22    C8      19.619152   17.400403   26.406029 C.3        1 MOL1        -0.2491
      23    H15     19.422625   17.455734   27.483856 H          1 MOL1         0.0959
      24    H16     18.753362   16.928919   25.924298 H          1 MOL1         0.0959
      25    H17     20.488946   16.747895   26.259620 H          1 MOL1         0.0959
      26    N1      18.721938   19.714009   26.110159 N.4        1 MOL1        -0.5987
      27    H18     18.901170   20.661563   25.767152 H          1 MOL1         0.3605
      28    H19     18.534605   19.781814   27.114627 H          1 MOL1         0.3605
      29    H20     17.866057   19.378903   25.660155 H          1 MOL1         0.3605
@<TRIPOS>BOND
    1     1     2    1
    2     1     3    1
    3     1     4    1
    4     1     5    1
    5     5     6    1
    6     5     7    1
    7     5     8    1
    8     8     9    1
    9     8    10    1
   10     8    11    1
   11    11    12    1
   12    11    13    1
   13    11    14    1
   14    14    15    1
   15    14    16    1
   16    14    17    1
   17    17    18    1
   18    17    19    1
   19    17    20    1
   20    20    21    1
   21    20    22    1
   22    22    23    1
   23    22    24    1
   24    22    25    1
   25    20    26    1
   26    26    27    1
   27    26    28    1
   28    26    29    1
@<TRIPOS>SUBSTRUCTURE
       1 MOL1            1 RESIDUE      1      MOL     
@<SCITEGIC>MOL_PROPERTY
VM2 Rank
SciTegic.value.IntegerValue
136

@<SCITEGIC>MOL_PROPERTY
Conf_Id
SciTegic.value.IntegerValue
1288

@<SCITEGIC>MOL_PROPERTY
Probability
SciTegic.value.DoubleValue
0.01

@<SCITEGIC>MOL_PROPERTY
Sum Probability
SciTegic.value.DoubleValue
99.79

@<SCITEGIC>MOL_PROPERTY
Delta G
SciTegic.value.DoubleValue
4.227

@<SCITEGIC>MOL_PROPERTY
G
SciTegic.value.DoubleValue
37.929

@<SCITEGIC>MOL_PROPERTY
E
SciTegic.value.DoubleValue
-0.274

@<SCITEGIC>MOL_PROPERTY
-TS
SciTegic.value.DoubleValue
38.204

@<SCITEGIC>MOL_PROPERTY
U+W
SciTegic.value.DoubleValue
-24.419

@<SCITEGIC>MOL_PROPERTY
U
SciTegic.value.DoubleValue
28.182

@<SCITEGIC>MOL_PROPERTY
W
SciTegic.value.DoubleValue
-52.601

@<SCITEGIC>MOL_PROPERTY
W(PB)
SciTegic.value.DoubleValue
-55.016

@<SCITEGIC>MOL_PROPERTY
W(SA)
SciTegic.value.DoubleValue
2.416

@<SCITEGIC>MOL_PROPERTY
Valence
SciTegic.value.DoubleValue
6.746

@<SCITEGIC>MOL_PROPERTY
Coulomb
SciTegic.value.DoubleValue
20.582

@<SCITEGIC>MOL_PROPERTY
VdW
SciTegic.value.DoubleValue
0.854

@<SCITEGIC>MOL_PROPERTY
VdW6
SciTegic.value.DoubleValue
-10.781

@<SCITEGIC>MOL_PROPERTY
VdW12
SciTegic.value.DoubleValue
11.635

@<SCITEGIC>MOL_PROPERTY
Bond
SciTegic.value.DoubleValue
0.324

@<SCITEGIC>MOL_PROPERTY
Angle
SciTegic.value.DoubleValue
2.262

@<SCITEGIC>MOL_PROPERTY
Pdih
SciTegic.value.DoubleValue
4.160

@<SCITEGIC>MOL_PROPERTY
Idih
SciTegic.value.DoubleValue
0.000

@<SCITEGIC>MOL_PROPERTY
Tether
SciTegic.value.DoubleValue
0.000

@<TRIPOS>MOLECULE
guest-s15_vm2.mol2 : vm2 ligand conformer 137
          29          28           1
SMALL
USER_CHARGES
 
@<TRIPOS>ATOM
       1    C1      19.379040   20.700242   20.000708 C.3        1 MOL1        -0.2426
       2    H1      19.673429   21.757059   20.039159 H          1 MOL1         0.0959
       3    H2      19.802777   20.265747   19.085900 H          1 MOL1         0.0959
       4    H3      18.284680   20.657542   19.924610 H          1 MOL1         0.0959
       5    C2      19.877071   19.950064   21.254090 C.3        1 MOL1        -0.1410
       6    H4      19.461879   20.437312   22.145906 H          1 MOL1         0.0948
       7    H5      20.970959   20.032813   21.317510 H          1 MOL1         0.0948
       8    C3      19.465407   18.460482   21.228003 C.3        1 MOL1        -0.1435
       9    H6      18.369388   18.384814   21.242487 H          1 MOL1         0.0948
      10    H7      19.789104   18.017949   20.275822 H          1 MOL1         0.0948
      11    C4      20.055254   17.611670   22.383846 C.3        1 MOL1        -0.1435
      12    H8      21.151798   17.592712   22.317466 H          1 MOL1         0.0948
      13    H9      19.732073   16.573006   22.228420 H          1 MOL1         0.0948
      14    C5      19.607787   18.049921   23.802656 C.3        1 MOL1        -0.1435
      15    H10     18.620208   18.526242   23.748934 H          1 MOL1         0.0948
      16    H11     19.477372   17.145478   24.411438 H          1 MOL1         0.0948
      17    C6      20.635726   18.977312   24.508179 C.3        1 MOL1        -0.1500
      18    H12     20.876064   19.832022   23.866372 H          1 MOL1         0.0948
      19    H13     21.579425   18.431455   24.638925 H          1 MOL1         0.0948
      20    C7      20.183685   19.518587   25.884885 C.3        1 MOL1         0.1162
      21    H14     20.987802   20.157298   26.263302 H          1 MOL1         0.0910
      22    C8      19.964886   18.390740   26.908264 C.3        1 MOL1        -0.2491
      23    H15     19.105582   17.763445   26.642833 H          1 MOL1         0.0959
      24    H16     20.851954   17.748859   26.976630 H          1 MOL1         0.0959
      25    H17     19.779088   18.808523   27.905321 H          1 MOL1         0.0959
      26    N1      18.967143   20.396982   25.783371 N.4        1 MOL1        -0.5987
      27    H18     18.158108   19.871963   25.442327 H          1 MOL1         0.3605
      28    H19     19.121490   21.179755   25.141621 H          1 MOL1         0.3605
      29    H20     18.715279   20.792470   26.693790 H          1 MOL1         0.3605
@<TRIPOS>BOND
    1     1     2    1
    2     1     3    1
    3     1     4    1
    4     1     5    1
    5     5     6    1
    6     5     7    1
    7     5     8    1
    8     8     9    1
    9     8    10    1
   10     8    11    1
   11    11    12    1
   12    11    13    1
   13    11    14    1
   14    14    15    1
   15    14    16    1
   16    14    17    1
   17    17    18    1
   18    17    19    1
   19    17    20    1
   20    20    21    1
   21    20    22    1
   22    22    23    1
   23    22    24    1
   24    22    25    1
   25    20    26    1
   26    26    27    1
   27    26    28    1
   28    26    29    1
@<TRIPOS>SUBSTRUCTURE
       1 MOL1            1 RESIDUE      1      MOL     
@<SCITEGIC>MOL_PROPERTY
VM2 Rank
SciTegic.value.IntegerValue
137

@<SCITEGIC>MOL_PROPERTY
Conf_Id
SciTegic.value.IntegerValue
1361

@<SCITEGIC>MOL_PROPERTY
Probability
SciTegic.value.DoubleValue
0.01

@<SCITEGIC>MOL_PROPERTY
Sum Probability
SciTegic.value.DoubleValue
99.80

@<SCITEGIC>MOL_PROPERTY
Delta G
SciTegic.value.DoubleValue
4.233

@<SCITEGIC>MOL_PROPERTY
G
SciTegic.value.DoubleValue
37.935

@<SCITEGIC>MOL_PROPERTY
E
SciTegic.value.DoubleValue
-0.009

@<SCITEGIC>MOL_PROPERTY
-TS
SciTegic.value.DoubleValue
37.945

@<SCITEGIC>MOL_PROPERTY
U+W
SciTegic.value.DoubleValue
-24.154

@<SCITEGIC>MOL_PROPERTY
U
SciTegic.value.DoubleValue
28.636

@<SCITEGIC>MOL_PROPERTY
W
SciTegic.value.DoubleValue
-52.790

@<SCITEGIC>MOL_PROPERTY
W(PB)
SciTegic.value.DoubleValue
-55.216

@<SCITEGIC>MOL_PROPERTY
W(SA)
SciTegic.value.DoubleValue
2.426

@<SCITEGIC>MOL_PROPERTY
Valence
SciTegic.value.DoubleValue
6.737

@<SCITEGIC>MOL_PROPERTY
Coulomb
SciTegic.value.DoubleValue
20.766

@<SCITEGIC>MOL_PROPERTY
VdW
SciTegic.value.DoubleValue
1.133

@<SCITEGIC>MOL_PROPERTY
VdW6
SciTegic.value.DoubleValue
-10.382

@<SCITEGIC>MOL_PROPERTY
VdW12
SciTegic.value.DoubleValue
11.515

@<SCITEGIC>MOL_PROPERTY
Bond
SciTegic.value.DoubleValue
0.321

@<SCITEGIC>MOL_PROPERTY
Angle
SciTegic.value.DoubleValue
1.947

@<SCITEGIC>MOL_PROPERTY
Pdih
SciTegic.value.DoubleValue
4.469

@<SCITEGIC>MOL_PROPERTY
Idih
SciTegic.value.DoubleValue
0.000

@<SCITEGIC>MOL_PROPERTY
Tether
SciTegic.value.DoubleValue
0.000

@<TRIPOS>MOLECULE
guest-s15_vm2.mol2 : vm2 ligand conformer 138
          29          28           1
SMALL
USER_CHARGES
 
@<TRIPOS>ATOM
       1    C1      19.018326   20.344437   19.926271 C.3        1 MOL1        -0.2426
       2    H1      19.873300   20.919014   19.546675 H          1 MOL1         0.0959
       3    H2      18.814756   19.527818   19.221316 H          1 MOL1         0.0959
       4    H3      18.144116   21.008282   19.935015 H          1 MOL1         0.0959
       5    C2      19.300856   19.797158   21.341473 C.3        1 MOL1        -0.1410
       6    H4      18.408286   19.265890   21.694643 H          1 MOL1         0.0948
       7    H5      19.477552   20.635940   22.029010 H          1 MOL1         0.0948
       8    C3      20.515879   18.842517   21.351287 C.3        1 MOL1        -0.1435
       9    H6      20.271612   17.935396   20.781565 H          1 MOL1         0.0948
      10    H7      21.347542   19.322135   20.816837 H          1 MOL1         0.0948
      11    C4      21.019788   18.448333   22.763750 C.3        1 MOL1        -0.1435
      12    H8      21.372224   19.339527   23.297347 H          1 MOL1         0.0948
      13    H9      21.913935   17.825153   22.624169 H          1 MOL1         0.0948
      14    C5      20.012736   17.638895   23.627186 C.3        1 MOL1        -0.1435
      15    H10     19.415018   16.986194   22.976361 H          1 MOL1         0.0948
      16    H11     20.580477   16.954918   24.271836 H          1 MOL1         0.0948
      17    C6      19.063027   18.481581   24.524826 C.3        1 MOL1        -0.1500
      18    H12     18.435931   17.794022   25.107656 H          1 MOL1         0.0948
      19    H13     18.369300   19.048332   23.895827 H          1 MOL1         0.0948
      20    C7      19.760930   19.464718   25.494857 C.3        1 MOL1         0.1162
      21    H14     20.359568   20.166311   24.907188 H          1 MOL1         0.0910
      22    C8      20.690991   18.742005   26.485312 C.3        1 MOL1        -0.2491
      23    H15     20.145741   17.983012   27.059996 H          1 MOL1         0.0959
      24    H16     21.520271   18.249541   25.964174 H          1 MOL1         0.0959
      25    H17     21.130581   19.454961   27.193636 H          1 MOL1         0.0959
      26    N1      18.753467   20.296355   26.239039 N.4        1 MOL1        -0.5987
      27    H18     18.150228   20.820905   25.598969 H          1 MOL1         0.3605
      28    H19     19.210657   20.976408   26.853207 H          1 MOL1         0.3605
      29    H20     18.148577   19.714586   26.825042 H          1 MOL1         0.3605
@<TRIPOS>BOND
    1     1     2    1
    2     1     3    1
    3     1     4    1
    4     1     5    1
    5     5     6    1
    6     5     7    1
    7     5     8    1
    8     8     9    1
    9     8    10    1
   10     8    11    1
   11    11    12    1
   12    11    13    1
   13    11    14    1
   14    14    15    1
   15    14    16    1
   16    14    17    1
   17    17    18    1
   18    17    19    1
   19    17    20    1
   20    20    21    1
   21    20    22    1
   22    22    23    1
   23    22    24    1
   24    22    25    1
   25    20    26    1
   26    26    27    1
   27    26    28    1
   28    26    29    1
@<TRIPOS>SUBSTRUCTURE
       1 MOL1            1 RESIDUE      1      MOL     
@<SCITEGIC>MOL_PROPERTY
VM2 Rank
SciTegic.value.IntegerValue
138

@<SCITEGIC>MOL_PROPERTY
Conf_Id
SciTegic.value.IntegerValue
200

@<SCITEGIC>MOL_PROPERTY
Probability
SciTegic.value.DoubleValue
0.01

@<SCITEGIC>MOL_PROPERTY
Sum Probability
SciTegic.value.DoubleValue
99.81

@<SCITEGIC>MOL_PROPERTY
Delta G
SciTegic.value.DoubleValue
4.243

@<SCITEGIC>MOL_PROPERTY
G
SciTegic.value.DoubleValue
37.946

@<SCITEGIC>MOL_PROPERTY
E
SciTegic.value.DoubleValue
0.346

@<SCITEGIC>MOL_PROPERTY
-TS
SciTegic.value.DoubleValue
37.600

@<SCITEGIC>MOL_PROPERTY
U+W
SciTegic.value.DoubleValue
-23.799

@<SCITEGIC>MOL_PROPERTY
U
SciTegic.value.DoubleValue
29.050

@<SCITEGIC>MOL_PROPERTY
W
SciTegic.value.DoubleValue
-52.849

@<SCITEGIC>MOL_PROPERTY
W(PB)
SciTegic.value.DoubleValue
-55.267

@<SCITEGIC>MOL_PROPERTY
W(SA)
SciTegic.value.DoubleValue
2.418

@<SCITEGIC>MOL_PROPERTY
Valence
SciTegic.value.DoubleValue
7.198

@<SCITEGIC>MOL_PROPERTY
Coulomb
SciTegic.value.DoubleValue
20.800

@<SCITEGIC>MOL_PROPERTY
VdW
SciTegic.value.DoubleValue
1.053

@<SCITEGIC>MOL_PROPERTY
VdW6
SciTegic.value.DoubleValue
-10.793

@<SCITEGIC>MOL_PROPERTY
VdW12
SciTegic.value.DoubleValue
11.845

@<SCITEGIC>MOL_PROPERTY
Bond
SciTegic.value.DoubleValue
0.359

@<SCITEGIC>MOL_PROPERTY
Angle
SciTegic.value.DoubleValue
2.715

@<SCITEGIC>MOL_PROPERTY
Pdih
SciTegic.value.DoubleValue
4.125

@<SCITEGIC>MOL_PROPERTY
Idih
SciTegic.value.DoubleValue
0.000

@<SCITEGIC>MOL_PROPERTY
Tether
SciTegic.value.DoubleValue
0.000

@<TRIPOS>MOLECULE
guest-s15_vm2.mol2 : vm2 ligand conformer 139
          29          28           1
SMALL
USER_CHARGES
 
@<TRIPOS>ATOM
       1    C1      18.668820   19.222007   20.114047 C.3        1 MOL1        -0.2426
       2    H1      18.096967   19.647835   20.947767 H          1 MOL1         0.0959
       3    H2      18.210404   19.582271   19.184037 H          1 MOL1         0.0959
       4    H3      18.564002   18.129662   20.139100 H          1 MOL1         0.0959
       5    C2      20.153659   19.640644   20.181024 C.3        1 MOL1        -0.1410
       6    H4      20.221933   20.737083   20.210186 H          1 MOL1         0.0948
       7    H5      20.649680   19.329571   19.251021 H          1 MOL1         0.0948
       8    C3      20.932795   19.040037   21.378833 C.3        1 MOL1        -0.1435
       9    H6      20.955755   17.944174   21.303515 H          1 MOL1         0.0948
      10    H7      21.978621   19.364820   21.288610 H          1 MOL1         0.0948
      11    C4      20.410592   19.473580   22.773250 C.3        1 MOL1        -0.1435
      12    H8      19.939560   20.463918   22.706857 H          1 MOL1         0.0948
      13    H9      21.275452   19.591050   23.439667 H          1 MOL1         0.0948
      14    C5      19.433066   18.450840   23.407094 C.3        1 MOL1        -0.1435
      15    H10     18.611582   18.237799   22.713023 H          1 MOL1         0.0948
      16    H11     19.947924   17.492933   23.558050 H          1 MOL1         0.0948
      17    C6      18.822445   18.941285   24.745213 C.3        1 MOL1        -0.1500
      18    H12     18.135724   18.174241   25.127055 H          1 MOL1         0.0948
      19    H13     18.205993   19.826328   24.539633 H          1 MOL1         0.0948
      20    C7      19.850804   19.298258   25.844287 C.3        1 MOL1         0.1162
      21    H14     20.526746   20.062674   25.449909 H          1 MOL1         0.0910
      22    C8      20.688514   18.079515   26.270246 C.3        1 MOL1        -0.2491
      23    H15     21.376787   18.347857   27.081137 H          1 MOL1         0.0959
      24    H16     20.047980   17.261960   26.623734 H          1 MOL1         0.0959
      25    H17     21.296784   17.704781   25.438826 H          1 MOL1         0.0959
      26    N1      19.175305   19.909833   27.040007 N.4        1 MOL1        -0.5987
      27    H18     19.855748   20.183947   27.754525 H          1 MOL1         0.3605
      28    H19     18.521907   19.253793   27.476367 H          1 MOL1         0.3605
      29    H20     18.645587   20.748683   26.785882 H          1 MOL1         0.3605
@<TRIPOS>BOND
    1     1     2    1
    2     1     3    1
    3     1     4    1
    4     1     5    1
    5     5     6    1
    6     5     7    1
    7     5     8    1
    8     8     9    1
    9     8    10    1
   10     8    11    1
   11    11    12    1
   12    11    13    1
   13    11    14    1
   14    14    15    1
   15    14    16    1
   16    14    17    1
   17    17    18    1
   18    17    19    1
   19    17    20    1
   20    20    21    1
   21    20    22    1
   22    22    23    1
   23    22    24    1
   24    22    25    1
   25    20    26    1
   26    26    27    1
   27    26    28    1
   28    26    29    1
@<TRIPOS>SUBSTRUCTURE
       1 MOL1            1 RESIDUE      1      MOL     
@<SCITEGIC>MOL_PROPERTY
VM2 Rank
SciTegic.value.IntegerValue
139

@<SCITEGIC>MOL_PROPERTY
Conf_Id
SciTegic.value.IntegerValue
1330

@<SCITEGIC>MOL_PROPERTY
Probability
SciTegic.value.DoubleValue
0.01

@<SCITEGIC>MOL_PROPERTY
Sum Probability
SciTegic.value.DoubleValue
99.82

@<SCITEGIC>MOL_PROPERTY
Delta G
SciTegic.value.DoubleValue
4.257

@<SCITEGIC>MOL_PROPERTY
G
SciTegic.value.DoubleValue
37.959

@<SCITEGIC>MOL_PROPERTY
E
SciTegic.value.DoubleValue
-0.102

@<SCITEGIC>MOL_PROPERTY
-TS
SciTegic.value.DoubleValue
38.061

@<SCITEGIC>MOL_PROPERTY
U+W
SciTegic.value.DoubleValue
-24.247

@<SCITEGIC>MOL_PROPERTY
U
SciTegic.value.DoubleValue
28.141

@<SCITEGIC>MOL_PROPERTY
W
SciTegic.value.DoubleValue
-52.387

@<SCITEGIC>MOL_PROPERTY
W(PB)
SciTegic.value.DoubleValue
-54.809

@<SCITEGIC>MOL_PROPERTY
W(SA)
SciTegic.value.DoubleValue
2.422

@<SCITEGIC>MOL_PROPERTY
Valence
SciTegic.value.DoubleValue
6.970

@<SCITEGIC>MOL_PROPERTY
Coulomb
SciTegic.value.DoubleValue
20.046

@<SCITEGIC>MOL_PROPERTY
VdW
SciTegic.value.DoubleValue
1.125

@<SCITEGIC>MOL_PROPERTY
VdW6
SciTegic.value.DoubleValue
-10.615

@<SCITEGIC>MOL_PROPERTY
VdW12
SciTegic.value.DoubleValue
11.740

@<SCITEGIC>MOL_PROPERTY
Bond
SciTegic.value.DoubleValue
0.316

@<SCITEGIC>MOL_PROPERTY
Angle
SciTegic.value.DoubleValue
2.134

@<SCITEGIC>MOL_PROPERTY
Pdih
SciTegic.value.DoubleValue
4.520

@<SCITEGIC>MOL_PROPERTY
Idih
SciTegic.value.DoubleValue
0.000

@<SCITEGIC>MOL_PROPERTY
Tether
SciTegic.value.DoubleValue
0.000

@<TRIPOS>MOLECULE
guest-s15_vm2.mol2 : vm2 ligand conformer 140
          29          28           1
SMALL
USER_CHARGES
 
@<TRIPOS>ATOM
       1    C1      19.682209   18.471712   19.759297 C.3        1 MOL1        -0.2426
       2    H1      20.309104   18.234268   18.890127 H          1 MOL1         0.0959
       3    H2      19.798137   17.655418   20.483106 H          1 MOL1         0.0959
       4    H3      18.636780   18.489911   19.425103 H          1 MOL1         0.0959
       5    C2      20.093898   19.830892   20.368555 C.3        1 MOL1        -0.1410
       6    H4      20.075019   20.593020   19.577083 H          1 MOL1         0.0948
       7    H5      21.135452   19.782743   20.713296 H          1 MOL1         0.0948
       8    C3      19.167985   20.295353   21.521604 C.3        1 MOL1        -0.1435
       9    H6      19.508143   21.279034   21.873370 H          1 MOL1         0.0948
      10    H7      18.156823   20.452761   21.121691 H          1 MOL1         0.0948
      11    C4      19.078475   19.330574   22.732224 C.3        1 MOL1        -0.1435
      12    H8      18.639188   18.375719   22.414429 H          1 MOL1         0.0948
      13    H9      18.370017   19.756964   23.450683 H          1 MOL1         0.0948
      14    C5      20.445798   19.071101   23.416068 C.3        1 MOL1        -0.1435
      15    H10     21.097381   18.551422   22.701272 H          1 MOL1         0.0948
      16    H11     20.945639   20.021501   23.648773 H          1 MOL1         0.0948
      17    C6      20.348839   18.195919   24.693358 C.3        1 MOL1        -0.1500
      18    H12     21.281557   17.622310   24.777693 H          1 MOL1         0.0948
      19    H13     19.547209   17.452989   24.587146 H          1 MOL1         0.0948
      20    C7      20.171684   18.998619   26.003454 C.3        1 MOL1         0.1162
      21    H14     20.996835   19.713632   26.077224 H          1 MOL1         0.0910
      22    C8      20.243052   18.057716   27.216880 C.3        1 MOL1        -0.2491
      23    H15     20.161521   18.623948   28.152912 H          1 MOL1         0.0959
      24    H16     19.433242   17.317725   27.193277 H          1 MOL1         0.0959
      25    H17     21.198250   17.518343   27.237102 H          1 MOL1         0.0959
      26    N1      18.904059   19.804113   26.042559 N.4        1 MOL1        -0.5987
      27    H18     18.827963   20.340073   26.911835 H          1 MOL1         0.3605
      28    H19     18.078835   19.202306   25.978004 H          1 MOL1         0.3605
      29    H20     18.867179   20.469489   25.265587 H          1 MOL1         0.3605
@<TRIPOS>BOND
    1     1     2    1
    2     1     3    1
    3     1     4    1
    4     1     5    1
    5     5     6    1
    6     5     7    1
    7     5     8    1
    8     8     9    1
    9     8    10    1
   10     8    11    1
   11    11    12    1
   12    11    13    1
   13    11    14    1
   14    14    15    1
   15    14    16    1
   16    14    17    1
   17    17    18    1
   18    17    19    1
   19    17    20    1
   20    20    21    1
   21    20    22    1
   22    22    23    1
   23    22    24    1
   24    22    25    1
   25    20    26    1
   26    26    27    1
   27    26    28    1
   28    26    29    1
@<TRIPOS>SUBSTRUCTURE
       1 MOL1            1 RESIDUE      1      MOL     
@<SCITEGIC>MOL_PROPERTY
VM2 Rank
SciTegic.value.IntegerValue
140

@<SCITEGIC>MOL_PROPERTY
Conf_Id
SciTegic.value.IntegerValue
1042

@<SCITEGIC>MOL_PROPERTY
Probability
SciTegic.value.DoubleValue
0.01

@<SCITEGIC>MOL_PROPERTY
Sum Probability
SciTegic.value.DoubleValue
99.82

@<SCITEGIC>MOL_PROPERTY
Delta G
SciTegic.value.DoubleValue
4.271

@<SCITEGIC>MOL_PROPERTY
G
SciTegic.value.DoubleValue
37.974

@<SCITEGIC>MOL_PROPERTY
E
SciTegic.value.DoubleValue
0.148

@<SCITEGIC>MOL_PROPERTY
-TS
SciTegic.value.DoubleValue
37.826

@<SCITEGIC>MOL_PROPERTY
U+W
SciTegic.value.DoubleValue
-23.997

@<SCITEGIC>MOL_PROPERTY
U
SciTegic.value.DoubleValue
28.159

@<SCITEGIC>MOL_PROPERTY
W
SciTegic.value.DoubleValue
-52.156

@<SCITEGIC>MOL_PROPERTY
W(PB)
SciTegic.value.DoubleValue
-54.606

@<SCITEGIC>MOL_PROPERTY
W(SA)
SciTegic.value.DoubleValue
2.450

@<SCITEGIC>MOL_PROPERTY
Valence
SciTegic.value.DoubleValue
6.261

@<SCITEGIC>MOL_PROPERTY
Coulomb
SciTegic.value.DoubleValue
20.687

@<SCITEGIC>MOL_PROPERTY
VdW
SciTegic.value.DoubleValue
1.211

@<SCITEGIC>MOL_PROPERTY
VdW6
SciTegic.value.DoubleValue
-10.379

@<SCITEGIC>MOL_PROPERTY
VdW12
SciTegic.value.DoubleValue
11.589

@<SCITEGIC>MOL_PROPERTY
Bond
SciTegic.value.DoubleValue
0.336

@<SCITEGIC>MOL_PROPERTY
Angle
SciTegic.value.DoubleValue
1.994

@<SCITEGIC>MOL_PROPERTY
Pdih
SciTegic.value.DoubleValue
3.931

@<SCITEGIC>MOL_PROPERTY
Idih
SciTegic.value.DoubleValue
0.000

@<SCITEGIC>MOL_PROPERTY
Tether
SciTegic.value.DoubleValue
0.000

@<TRIPOS>MOLECULE
guest-s15_vm2.mol2 : vm2 ligand conformer 141
          29          28           1
SMALL
USER_CHARGES
 
@<TRIPOS>ATOM
       1    C1      18.651828   20.379082   20.824707 C.3        1 MOL1        -0.2426
       2    H1      17.913837   20.124739   21.596405 H          1 MOL1         0.0959
       3    H2      19.377335   21.082615   21.250893 H          1 MOL1         0.0959
       4    H3      18.125776   20.902066   20.015633 H          1 MOL1         0.0959
       5    C2      19.350974   19.113343   20.283240 C.3        1 MOL1        -0.1410
       6    H4      20.134731   19.405875   19.570631 H          1 MOL1         0.0948
       7    H5      18.620565   18.527357   19.708057 H          1 MOL1         0.0948
       8    C3      19.957529   18.200585   21.379293 C.3        1 MOL1        -0.1435
       9    H6      19.160048   17.822006   22.030077 H          1 MOL1         0.0948
      10    H7      20.370638   17.315072   20.876897 H          1 MOL1         0.0948
      11    C4      21.095344   18.853031   22.211459 C.3        1 MOL1        -0.1435
      12    H8      21.625413   19.587481   21.589686 H          1 MOL1         0.0948
      13    H9      21.841026   18.083727   22.454942 H          1 MOL1         0.0948
      14    C5      20.641938   19.526241   23.533417 C.3        1 MOL1        -0.1435
      15    H10     21.487663   20.102373   23.933678 H          1 MOL1         0.0948
      16    H11     19.845174   20.250919   23.333672 H          1 MOL1         0.0948
      17    C6      20.180404   18.511559   24.611418 C.3        1 MOL1        -0.1500
      18    H12     20.964654   17.754771   24.745582 H          1 MOL1         0.0948
      19    H13     19.283499   17.977059   24.275462 H          1 MOL1         0.0948
      20    C7      19.894179   19.176855   25.974882 C.3        1 MOL1         0.1162
      21    H14     20.791512   19.720136   26.286748 H          1 MOL1         0.0910
      22    C8      19.582854   18.109485   27.036063 C.3        1 MOL1        -0.2491
      23    H15     19.414441   18.573487   28.015723 H          1 MOL1         0.0959
      24    H16     18.686116   17.535516   26.770816 H          1 MOL1         0.0959
      25    H17     20.419551   17.407423   27.139968 H          1 MOL1         0.0959
      26    N1      18.780950   20.185820   25.899521 N.4        1 MOL1        -0.5987
      27    H18     18.618643   20.631803   26.806955 H          1 MOL1         0.3605
      28    H19     17.901547   19.749410   25.610275 H          1 MOL1         0.3605
      29    H20     18.994156   20.927391   25.227061 H          1 MOL1         0.3605
@<TRIPOS>BOND
    1     1     2    1
    2     1     3    1
    3     1     4    1
    4     1     5    1
    5     5     6    1
    6     5     7    1
    7     5     8    1
    8     8     9    1
    9     8    10    1
   10     8    11    1
   11    11    12    1
   12    11    13    1
   13    11    14    1
   14    14    15    1
   15    14    16    1
   16    14    17    1
   17    17    18    1
   18    17    19    1
   19    17    20    1
   20    20    21    1
   21    20    22    1
   22    22    23    1
   23    22    24    1
   24    22    25    1
   25    20    26    1
   26    26    27    1
   27    26    28    1
   28    26    29    1
@<TRIPOS>SUBSTRUCTURE
       1 MOL1            1 RESIDUE      1      MOL     
@<SCITEGIC>MOL_PROPERTY
VM2 Rank
SciTegic.value.IntegerValue
141

@<SCITEGIC>MOL_PROPERTY
Conf_Id
SciTegic.value.IntegerValue
1201

@<SCITEGIC>MOL_PROPERTY
Probability
SciTegic.value.DoubleValue
0.01

@<SCITEGIC>MOL_PROPERTY
Sum Probability
SciTegic.value.DoubleValue
99.83

@<SCITEGIC>MOL_PROPERTY
Delta G
SciTegic.value.DoubleValue
4.274

@<SCITEGIC>MOL_PROPERTY
G
SciTegic.value.DoubleValue
37.976

@<SCITEGIC>MOL_PROPERTY
E
SciTegic.value.DoubleValue
0.244

@<SCITEGIC>MOL_PROPERTY
-TS
SciTegic.value.DoubleValue
37.732

@<SCITEGIC>MOL_PROPERTY
U+W
SciTegic.value.DoubleValue
-23.900

@<SCITEGIC>MOL_PROPERTY
U
SciTegic.value.DoubleValue
28.594

@<SCITEGIC>MOL_PROPERTY
W
SciTegic.value.DoubleValue
-52.495

@<SCITEGIC>MOL_PROPERTY
W(PB)
SciTegic.value.DoubleValue
-54.943

@<SCITEGIC>MOL_PROPERTY
W(SA)
SciTegic.value.DoubleValue
2.449

@<SCITEGIC>MOL_PROPERTY
Valence
SciTegic.value.DoubleValue
6.844

@<SCITEGIC>MOL_PROPERTY
Coulomb
SciTegic.value.DoubleValue
20.557

@<SCITEGIC>MOL_PROPERTY
VdW
SciTegic.value.DoubleValue
1.194

@<SCITEGIC>MOL_PROPERTY
VdW6
SciTegic.value.DoubleValue
-10.197

@<SCITEGIC>MOL_PROPERTY
VdW12
SciTegic.value.DoubleValue
11.392

@<SCITEGIC>MOL_PROPERTY
Bond
SciTegic.value.DoubleValue
0.333

@<SCITEGIC>MOL_PROPERTY
Angle
SciTegic.value.DoubleValue
1.970

@<SCITEGIC>MOL_PROPERTY
Pdih
SciTegic.value.DoubleValue
4.541

@<SCITEGIC>MOL_PROPERTY
Idih
SciTegic.value.DoubleValue
0.000

@<SCITEGIC>MOL_PROPERTY
Tether
SciTegic.value.DoubleValue
0.000

@<TRIPOS>MOLECULE
guest-s15_vm2.mol2 : vm2 ligand conformer 142
          29          28           1
SMALL
USER_CHARGES
 
@<TRIPOS>ATOM
       1    C1      19.808256   19.587711   19.574958 C.3        1 MOL1        -0.2426
       2    H1      19.732021   18.493550   19.556283 H          1 MOL1         0.0959
       3    H2      18.800153   20.005740   19.456675 H          1 MOL1         0.0959
       4    H3      20.401834   19.891148   18.702883 H          1 MOL1         0.0959
       5    C2      20.468717   20.089592   20.879065 C.3        1 MOL1        -0.1410
       6    H4      20.639620   21.171863   20.793760 H          1 MOL1         0.0948
       7    H5      21.460618   19.630071   20.991771 H          1 MOL1         0.0948
       8    C3      19.620357   19.820448   22.145421 C.3        1 MOL1        -0.1435
       9    H6      20.105744   20.324824   22.987402 H          1 MOL1         0.0948
      10    H7      18.634928   20.292171   22.029608 H          1 MOL1         0.0948
      11    C4      19.442206   18.311877   22.456282 C.3        1 MOL1        -0.1435
      12    H8      20.420408   17.814177   22.504532 H          1 MOL1         0.0948
      13    H9      18.906051   17.846534   21.618965 H          1 MOL1         0.0948
      14    C5      18.634586   18.024638   23.749212 C.3        1 MOL1        -0.1435
      15    H10     17.846553   18.777133   23.885255 H          1 MOL1         0.0948
      16    H11     18.104615   17.072441   23.608064 H          1 MOL1         0.0948
      17    C6      19.494078   17.882974   25.034602 C.3        1 MOL1        -0.1500
      18    H12     20.222766   17.075542   24.883096 H          1 MOL1         0.0948
      19    H13     18.845322   17.553766   25.857194 H          1 MOL1         0.0948
      20    C7      20.243059   19.160311   25.469850 C.3        1 MOL1         0.1162
      21    H14     20.899971   19.470444   24.652831 H          1 MOL1         0.0910
      22    C8      21.118703   18.873872   26.699888 C.3        1 MOL1        -0.2491
      23    H15     21.682486   19.768493   26.991755 H          1 MOL1         0.0959
      24    H16     20.509864   18.558912   27.556650 H          1 MOL1         0.0959
      25    H17     21.843819   18.078951   26.485289 H          1 MOL1         0.0959
      26    N1      19.306039   20.304577   25.744722 N.4        1 MOL1        -0.5987
      27    H18     19.816648   21.154720   26.000088 H          1 MOL1         0.3605
      28    H19     18.669577   20.085829   26.515885 H          1 MOL1         0.3605
      29    H20     18.733722   20.520135   24.924003 H          1 MOL1         0.3605
@<TRIPOS>BOND
    1     1     2    1
    2     1     3    1
    3     1     4    1
    4     1     5    1
    5     5     6    1
    6     5     7    1
    7     5     8    1
    8     8     9    1
    9     8    10    1
   10     8    11    1
   11    11    12    1
   12    11    13    1
   13    11    14    1
   14    14    15    1
   15    14    16    1
   16    14    17    1
   17    17    18    1
   18    17    19    1
   19    17    20    1
   20    20    21    1
   21    20    22    1
   22    22    23    1
   23    22    24    1
   24    22    25    1
   25    20    26    1
   26    26    27    1
   27    26    28    1
   28    26    29    1
@<TRIPOS>SUBSTRUCTURE
       1 MOL1            1 RESIDUE      1      MOL     
@<SCITEGIC>MOL_PROPERTY
VM2 Rank
SciTegic.value.IntegerValue
142

@<SCITEGIC>MOL_PROPERTY
Conf_Id
SciTegic.value.IntegerValue
1523

@<SCITEGIC>MOL_PROPERTY
Probability
SciTegic.value.DoubleValue
0.01

@<SCITEGIC>MOL_PROPERTY
Sum Probability
SciTegic.value.DoubleValue
99.84

@<SCITEGIC>MOL_PROPERTY
Delta G
SciTegic.value.DoubleValue
4.323

@<SCITEGIC>MOL_PROPERTY
G
SciTegic.value.DoubleValue
38.025

@<SCITEGIC>MOL_PROPERTY
E
SciTegic.value.DoubleValue
0.064

@<SCITEGIC>MOL_PROPERTY
-TS
SciTegic.value.DoubleValue
37.961

@<SCITEGIC>MOL_PROPERTY
U+W
SciTegic.value.DoubleValue
-24.081

@<SCITEGIC>MOL_PROPERTY
U
SciTegic.value.DoubleValue
28.340

@<SCITEGIC>MOL_PROPERTY
W
SciTegic.value.DoubleValue
-52.421

@<SCITEGIC>MOL_PROPERTY
W(PB)
SciTegic.value.DoubleValue
-54.864

@<SCITEGIC>MOL_PROPERTY
W(SA)
SciTegic.value.DoubleValue
2.443

@<SCITEGIC>MOL_PROPERTY
Valence
SciTegic.value.DoubleValue
6.427

@<SCITEGIC>MOL_PROPERTY
Coulomb
SciTegic.value.DoubleValue
21.045

@<SCITEGIC>MOL_PROPERTY
VdW
SciTegic.value.DoubleValue
0.869

@<SCITEGIC>MOL_PROPERTY
VdW6
SciTegic.value.DoubleValue
-10.613

@<SCITEGIC>MOL_PROPERTY
VdW12
SciTegic.value.DoubleValue
11.481

@<SCITEGIC>MOL_PROPERTY
Bond
SciTegic.value.DoubleValue
0.315

@<SCITEGIC>MOL_PROPERTY
Angle
SciTegic.value.DoubleValue
2.103

@<SCITEGIC>MOL_PROPERTY
Pdih
SciTegic.value.DoubleValue
4.010

@<SCITEGIC>MOL_PROPERTY
Idih
SciTegic.value.DoubleValue
0.000

@<SCITEGIC>MOL_PROPERTY
Tether
SciTegic.value.DoubleValue
0.000

@<TRIPOS>MOLECULE
guest-s15_vm2.mol2 : vm2 ligand conformer 143
          29          28           1
SMALL
USER_CHARGES
 
@<TRIPOS>ATOM
       1    C1      18.301092   18.345323   21.390707 C.3        1 MOL1        -0.2426
       2    H1      18.563019   17.947800   22.376433 H          1 MOL1         0.0959
       3    H2      17.544857   19.128864   21.528518 H          1 MOL1         0.0959
       4    H3      17.835677   17.530385   20.821418 H          1 MOL1         0.0959
       5    C2      19.534765   18.892511   20.635874 C.3        1 MOL1        -0.1410
       6    H4      19.207126   19.189246   19.629671 H          1 MOL1         0.0948
       7    H5      20.275889   18.094778   20.488404 H          1 MOL1         0.0948
       8    C3      20.193450   20.121128   21.315723 C.3        1 MOL1        -0.1435
       9    H6      20.599042   20.763713   20.522086 H          1 MOL1         0.0948
      10    H7      19.435362   20.732991   21.821862 H          1 MOL1         0.0948
      11    C4      21.367143   19.788799   22.276568 C.3        1 MOL1        -0.1435
      12    H8      21.831554   20.730864   22.599012 H          1 MOL1         0.0948
      13    H9      22.144178   19.253010   21.714226 H          1 MOL1         0.0948
      14    C5      21.004194   18.960850   23.533919 C.3        1 MOL1        -0.1435
      15    H10     20.638111   17.974535   23.226761 H          1 MOL1         0.0948
      16    H11     21.926053   18.774590   24.101955 H          1 MOL1         0.0948
      17    C6      19.982955   19.669597   24.460942 C.3        1 MOL1        -0.1500
      18    H12     19.024543   19.799438   23.943570 H          1 MOL1         0.0948
      19    H13     20.356160   20.678464   24.680663 H          1 MOL1         0.0948
      20    C7      19.745818   18.931568   25.797722 C.3        1 MOL1         0.1162
      21    H14     20.716576   18.763265   26.274047 H          1 MOL1         0.0910
      22    C8      19.059577   17.569146   25.592315 C.3        1 MOL1        -0.2491
      23    H15     19.691500   16.887039   25.012090 H          1 MOL1         0.0959
      24    H16     18.863206   17.086642   26.557690 H          1 MOL1         0.0959
      25    H17     18.102479   17.681831   25.068016 H          1 MOL1         0.0959
      26    N1      18.947006   19.777079   26.750230 N.4        1 MOL1        -0.5987
      27    H18     18.015294   19.980728   26.378669 H          1 MOL1         0.3605
      28    H19     19.407346   20.672882   26.935913 H          1 MOL1         0.3605
      29    H20     18.820869   19.307156   27.651308 H          1 MOL1         0.3605
@<TRIPOS>BOND
    1     1     2    1
    2     1     3    1
    3     1     4    1
    4     1     5    1
    5     5     6    1
    6     5     7    1
    7     5     8    1
    8     8     9    1
    9     8    10    1
   10     8    11    1
   11    11    12    1
   12    11    13    1
   13    11    14    1
   14    14    15    1
   15    14    16    1
   16    14    17    1
   17    17    18    1
   18    17    19    1
   19    17    20    1
   20    20    21    1
   21    20    22    1
   22    22    23    1
   23    22    24    1
   24    22    25    1
   25    20    26    1
   26    26    27    1
   27    26    28    1
   28    26    29    1
@<TRIPOS>SUBSTRUCTURE
       1 MOL1            1 RESIDUE      1      MOL     
@<SCITEGIC>MOL_PROPERTY
VM2 Rank
SciTegic.value.IntegerValue
143

@<SCITEGIC>MOL_PROPERTY
Conf_Id
SciTegic.value.IntegerValue
324

@<SCITEGIC>MOL_PROPERTY
Probability
SciTegic.value.DoubleValue
0.01

@<SCITEGIC>MOL_PROPERTY
Sum Probability
SciTegic.value.DoubleValue
99.85

@<SCITEGIC>MOL_PROPERTY
Delta G
SciTegic.value.DoubleValue
4.335

@<SCITEGIC>MOL_PROPERTY
G
SciTegic.value.DoubleValue
38.038

@<SCITEGIC>MOL_PROPERTY
E
SciTegic.value.DoubleValue
-0.301

@<SCITEGIC>MOL_PROPERTY
-TS
SciTegic.value.DoubleValue
38.339

@<SCITEGIC>MOL_PROPERTY
U+W
SciTegic.value.DoubleValue
-24.446

@<SCITEGIC>MOL_PROPERTY
U
SciTegic.value.DoubleValue
28.291

@<SCITEGIC>MOL_PROPERTY
W
SciTegic.value.DoubleValue
-52.737

@<SCITEGIC>MOL_PROPERTY
W(PB)
SciTegic.value.DoubleValue
-55.104

@<SCITEGIC>MOL_PROPERTY
W(SA)
SciTegic.value.DoubleValue
2.367

@<SCITEGIC>MOL_PROPERTY
Valence
SciTegic.value.DoubleValue
7.253

@<SCITEGIC>MOL_PROPERTY
Coulomb
SciTegic.value.DoubleValue
20.286

@<SCITEGIC>MOL_PROPERTY
VdW
SciTegic.value.DoubleValue
0.753

@<SCITEGIC>MOL_PROPERTY
VdW6
SciTegic.value.DoubleValue
-11.320

@<SCITEGIC>MOL_PROPERTY
VdW12
SciTegic.value.DoubleValue
12.073

@<SCITEGIC>MOL_PROPERTY
Bond
SciTegic.value.DoubleValue
0.335

@<SCITEGIC>MOL_PROPERTY
Angle
SciTegic.value.DoubleValue
2.556

@<SCITEGIC>MOL_PROPERTY
Pdih
SciTegic.value.DoubleValue
4.362

@<SCITEGIC>MOL_PROPERTY
Idih
SciTegic.value.DoubleValue
0.000

@<SCITEGIC>MOL_PROPERTY
Tether
SciTegic.value.DoubleValue
0.000

@<TRIPOS>MOLECULE
guest-s15_vm2.mol2 : vm2 ligand conformer 144
          29          28           1
SMALL
USER_CHARGES
 
@<TRIPOS>ATOM
       1    C1      20.306895   19.751931   19.662867 C.3        1 MOL1        -0.2426
       2    H1      21.317563   20.093916   19.920942 H          1 MOL1         0.0959
       3    H2      20.339558   18.666386   19.509902 H          1 MOL1         0.0959
       4    H3      20.032478   20.210691   18.704136 H          1 MOL1         0.0959
       5    C2      19.290517   20.144275   20.759405 C.3        1 MOL1        -0.1410
       6    H4      18.294145   19.762516   20.496263 H          1 MOL1         0.0948
       7    H5      19.203812   21.239632   20.781032 H          1 MOL1         0.0948
       8    C3      19.684789   19.652253   22.173101 C.3        1 MOL1        -0.1435
       9    H6      20.692032   20.014499   22.420576 H          1 MOL1         0.0948
      10    H7      18.994681   20.114422   22.889816 H          1 MOL1         0.0948
      11    C4      19.622527   18.112736   22.330843 C.3        1 MOL1        -0.1435
      12    H8      20.218924   17.638913   21.541100 H          1 MOL1         0.0948
      13    H9      18.589020   17.773221   22.177242 H          1 MOL1         0.0948
      14    C5      20.143239   17.583280   23.692418 C.3        1 MOL1        -0.1435
      15    H10     20.081477   16.486681   23.661981 H          1 MOL1         0.0948
      16    H11     21.211152   17.811059   23.795712 H          1 MOL1         0.0948
      17    C6      19.346013   18.070265   24.933579 C.3        1 MOL1        -0.1500
      18    H12     19.423385   17.312177   25.724287 H          1 MOL1         0.0948
      19    H13     18.280981   18.117608   24.670961 H          1 MOL1         0.0948
      20    C7      19.798534   19.430934   25.517175 C.3        1 MOL1         0.1162
      21    H14     19.877249   20.157284   24.705291 H          1 MOL1         0.0910
      22    C8      21.169030   19.333289   26.211673 C.3        1 MOL1        -0.2491
      23    H15     21.152411   18.591747   27.020083 H          1 MOL1         0.0959
      24    H16     21.958800   19.052053   25.506264 H          1 MOL1         0.0959
      25    H17     21.451078   20.300686   26.645185 H          1 MOL1         0.0959
      26    N1      18.774456   19.977037   26.472940 N.4        1 MOL1        -0.5987
      27    H18     17.862099   20.093634   26.022619 H          1 MOL1         0.3605
      28    H19     19.053694   20.892169   26.838000 H          1 MOL1         0.3605
      29    H20     18.643952   19.355324   27.275598 H          1 MOL1         0.3605
@<TRIPOS>BOND
    1     1     2    1
    2     1     3    1
    3     1     4    1
    4     1     5    1
    5     5     6    1
    6     5     7    1
    7     5     8    1
    8     8     9    1
    9     8    10    1
   10     8    11    1
   11    11    12    1
   12    11    13    1
   13    11    14    1
   14    14    15    1
   15    14    16    1
   16    14    17    1
   17    17    18    1
   18    17    19    1
   19    17    20    1
   20    20    21    1
   21    20    22    1
   22    22    23    1
   23    22    24    1
   24    22    25    1
   25    20    26    1
   26    26    27    1
   27    26    28    1
   28    26    29    1
@<TRIPOS>SUBSTRUCTURE
       1 MOL1            1 RESIDUE      1      MOL     
@<SCITEGIC>MOL_PROPERTY
VM2 Rank
SciTegic.value.IntegerValue
144

@<SCITEGIC>MOL_PROPERTY
Conf_Id
SciTegic.value.IntegerValue
103

@<SCITEGIC>MOL_PROPERTY
Probability
SciTegic.value.DoubleValue
0.01

@<SCITEGIC>MOL_PROPERTY
Sum Probability
SciTegic.value.DoubleValue
99.85

@<SCITEGIC>MOL_PROPERTY
Delta G
SciTegic.value.DoubleValue
4.342

@<SCITEGIC>MOL_PROPERTY
G
SciTegic.value.DoubleValue
38.045

@<SCITEGIC>MOL_PROPERTY
E
SciTegic.value.DoubleValue
0.306

@<SCITEGIC>MOL_PROPERTY
-TS
SciTegic.value.DoubleValue
37.739

@<SCITEGIC>MOL_PROPERTY
U+W
SciTegic.value.DoubleValue
-23.839

@<SCITEGIC>MOL_PROPERTY
U
SciTegic.value.DoubleValue
28.801

@<SCITEGIC>MOL_PROPERTY
W
SciTegic.value.DoubleValue
-52.639

@<SCITEGIC>MOL_PROPERTY
W(PB)
SciTegic.value.DoubleValue
-55.104

@<SCITEGIC>MOL_PROPERTY
W(SA)
SciTegic.value.DoubleValue
2.464

@<SCITEGIC>MOL_PROPERTY
Valence
SciTegic.value.DoubleValue
7.007

@<SCITEGIC>MOL_PROPERTY
Coulomb
SciTegic.value.DoubleValue
20.616

@<SCITEGIC>MOL_PROPERTY
VdW
SciTegic.value.DoubleValue
1.177

@<SCITEGIC>MOL_PROPERTY
VdW6
SciTegic.value.DoubleValue
-10.509

@<SCITEGIC>MOL_PROPERTY
VdW12
SciTegic.value.DoubleValue
11.686

@<SCITEGIC>MOL_PROPERTY
Bond
SciTegic.value.DoubleValue
0.329

@<SCITEGIC>MOL_PROPERTY
Angle
SciTegic.value.DoubleValue
2.382

@<SCITEGIC>MOL_PROPERTY
Pdih
SciTegic.value.DoubleValue
4.296

@<SCITEGIC>MOL_PROPERTY
Idih
SciTegic.value.DoubleValue
0.000

@<SCITEGIC>MOL_PROPERTY
Tether
SciTegic.value.DoubleValue
0.000

@<TRIPOS>MOLECULE
guest-s15_vm2.mol2 : vm2 ligand conformer 145
          29          28           1
SMALL
USER_CHARGES
 
@<TRIPOS>ATOM
       1    C1      18.700646   18.753579   20.042484 C.3        1 MOL1        -0.2426
       2    H1      18.371281   18.138821   20.889476 H          1 MOL1         0.0959
       3    H2      17.963176   19.551855   19.888106 H          1 MOL1         0.0959
       4    H3      18.697045   18.114904   19.149784 H          1 MOL1         0.0959
       5    C2      20.110334   19.338857   20.283589 C.3        1 MOL1        -0.1410
       6    H4      20.447515   19.837723   19.364305 H          1 MOL1         0.0948
       7    H5      20.824869   18.523963   20.459228 H          1 MOL1         0.0948
       8    C3      20.164229   20.363136   21.446220 C.3        1 MOL1        -0.1435
       9    H6      21.193742   20.734250   21.543900 H          1 MOL1         0.0948
      10    H7      19.555849   21.236107   21.172413 H          1 MOL1         0.0948
      11    C4      19.682813   19.840318   22.824960 C.3        1 MOL1        -0.1435
      12    H8      18.627036   19.544953   22.764665 H          1 MOL1         0.0948
      13    H9      19.733635   20.681961   23.525516 H          1 MOL1         0.0948
      14    C5      20.531570   18.666295   23.374575 C.3        1 MOL1        -0.1435
      15    H10     20.573043   17.866900   22.624163 H          1 MOL1         0.0948
      16    H11     21.567375   19.001742   23.521881 H          1 MOL1         0.0948
      17    C6      20.000067   18.037560   24.689718 C.3        1 MOL1        -0.1500
      18    H12     20.629381   17.163427   24.904130 H          1 MOL1         0.0948
      19    H13     18.985843   17.644946   24.538667 H          1 MOL1         0.0948
      20    C7      20.024726   18.977621   25.918335 C.3        1 MOL1         0.1162
      21    H14     20.930613   19.589436   25.867473 H          1 MOL1         0.0910
      22    C8      20.069230   18.158873   27.219167 C.3        1 MOL1        -0.2491
      23    H15     19.187480   17.512282   27.311271 H          1 MOL1         0.0959
      24    H16     20.963757   17.524375   27.251367 H          1 MOL1         0.0959
      25    H17     20.101495   18.820225   28.093846 H          1 MOL1         0.0959
      26    N1      18.852384   19.919761   25.954952 N.4        1 MOL1        -0.5987
      27    H18     17.969272   19.409701   26.041503 H          1 MOL1         0.3605
      28    H19     18.799148   20.484832   25.104477 H          1 MOL1         0.3605
      29    H20     18.913932   20.562102   26.750173 H          1 MOL1         0.3605
@<TRIPOS>BOND
    1     1     2    1
    2     1     3    1
    3     1     4    1
    4     1     5    1
    5     5     6    1
    6     5     7    1
    7     5     8    1
    8     8     9    1
    9     8    10    1
   10     8    11    1
   11    11    12    1
   12    11    13    1
   13    11    14    1
   14    14    15    1
   15    14    16    1
   16    14    17    1
   17    17    18    1
   18    17    19    1
   19    17    20    1
   20    20    21    1
   21    20    22    1
   22    22    23    1
   23    22    24    1
   24    22    25    1
   25    20    26    1
   26    26    27    1
   27    26    28    1
   28    26    29    1
@<TRIPOS>SUBSTRUCTURE
       1 MOL1            1 RESIDUE      1      MOL     
@<SCITEGIC>MOL_PROPERTY
VM2 Rank
SciTegic.value.IntegerValue
145

@<SCITEGIC>MOL_PROPERTY
Conf_Id
SciTegic.value.IntegerValue
1051

@<SCITEGIC>MOL_PROPERTY
Probability
SciTegic.value.DoubleValue
0.01

@<SCITEGIC>MOL_PROPERTY
Sum Probability
SciTegic.value.DoubleValue
99.86

@<SCITEGIC>MOL_PROPERTY
Delta G
SciTegic.value.DoubleValue
4.366

@<SCITEGIC>MOL_PROPERTY
G
SciTegic.value.DoubleValue
38.069

@<SCITEGIC>MOL_PROPERTY
E
SciTegic.value.DoubleValue
0.332

@<SCITEGIC>MOL_PROPERTY
-TS
SciTegic.value.DoubleValue
37.737

@<SCITEGIC>MOL_PROPERTY
U+W
SciTegic.value.DoubleValue
-23.813

@<SCITEGIC>MOL_PROPERTY
U
SciTegic.value.DoubleValue
28.429

@<SCITEGIC>MOL_PROPERTY
W
SciTegic.value.DoubleValue
-52.242

@<SCITEGIC>MOL_PROPERTY
W(PB)
SciTegic.value.DoubleValue
-54.685

@<SCITEGIC>MOL_PROPERTY
W(SA)
SciTegic.value.DoubleValue
2.442

@<SCITEGIC>MOL_PROPERTY
Valence
SciTegic.value.DoubleValue
6.077

@<SCITEGIC>MOL_PROPERTY
Coulomb
SciTegic.value.DoubleValue
21.131

@<SCITEGIC>MOL_PROPERTY
VdW
SciTegic.value.DoubleValue
1.221

@<SCITEGIC>MOL_PROPERTY
VdW6
SciTegic.value.DoubleValue
-10.541

@<SCITEGIC>MOL_PROPERTY
VdW12
SciTegic.value.DoubleValue
11.762

@<SCITEGIC>MOL_PROPERTY
Bond
SciTegic.value.DoubleValue
0.334

@<SCITEGIC>MOL_PROPERTY
Angle
SciTegic.value.DoubleValue
2.388

@<SCITEGIC>MOL_PROPERTY
Pdih
SciTegic.value.DoubleValue
3.355

@<SCITEGIC>MOL_PROPERTY
Idih
SciTegic.value.DoubleValue
0.000

@<SCITEGIC>MOL_PROPERTY
Tether
SciTegic.value.DoubleValue
0.000

@<TRIPOS>MOLECULE
guest-s15_vm2.mol2 : vm2 ligand conformer 146
          29          28           1
SMALL
USER_CHARGES
 
@<TRIPOS>ATOM
       1    C1      19.507318   18.172065   19.931449 C.3        1 MOL1        -0.2426
       2    H1      20.459338   17.743919   19.591734 H          1 MOL1         0.0959
       3    H2      19.151613   17.573062   20.777009 H          1 MOL1         0.0959
       4    H3      18.781912   18.059943   19.115296 H          1 MOL1         0.0959
       5    C2      19.675809   19.663447   20.304343 C.3        1 MOL1        -0.1410
       6    H4      18.704220   20.103817   20.568240 H          1 MOL1         0.0948
       7    H5      20.016960   20.199983   19.407899 H          1 MOL1         0.0948
       8    C3      20.702056   19.899420   21.442265 C.3        1 MOL1        -0.1435
       9    H6      21.462752   19.106655   21.438568 H          1 MOL1         0.0948
      10    H7      21.244513   20.830032   21.225302 H          1 MOL1         0.0948
      11    C4      20.085795   20.038983   22.858198 C.3        1 MOL1        -0.1435
      12    H8      19.407721   20.903262   22.876846 H          1 MOL1         0.0948
      13    H9      20.900656   20.273566   23.555211 H          1 MOL1         0.0948
      14    C5      19.328540   18.780863   23.349698 C.3        1 MOL1        -0.1435
      15    H10     18.466151   18.601668   22.695178 H          1 MOL1         0.0948
      16    H11     19.972901   17.896661   23.259088 H          1 MOL1         0.0948
      17    C6      18.799871   18.911045   24.801905 C.3        1 MOL1        -0.1500
      18    H12     18.243057   18.000430   25.059782 H          1 MOL1         0.0948
      19    H13     18.071264   19.731858   24.833104 H          1 MOL1         0.0948
      20    C7      19.880643   19.166585   25.879123 C.3        1 MOL1         0.1162
      21    H14     20.415681   20.085329   25.622128 H          1 MOL1         0.0910
      22    C8      20.899879   18.016478   25.961726 C.3        1 MOL1        -0.2491
      23    H15     21.469009   17.922305   25.029529 H          1 MOL1         0.0959
      24    H16     21.622940   18.197676   26.766474 H          1 MOL1         0.0959
      25    H17     20.402402   17.058943   26.159899 H          1 MOL1         0.0959
      26    N1      19.256090   19.407114   27.225292 N.4        1 MOL1        -0.5987
      27    H18     18.734717   18.587260   27.547366 H          1 MOL1         0.3605
      28    H19     18.604570   20.196986   27.203029 H          1 MOL1         0.3605
      29    H20     19.964622   19.616443   27.934404 H          1 MOL1         0.3605
@<TRIPOS>BOND
    1     1     2    1
    2     1     3    1
    3     1     4    1
    4     1     5    1
    5     5     6    1
    6     5     7    1
    7     5     8    1
    8     8     9    1
    9     8    10    1
   10     8    11    1
   11    11    12    1
   12    11    13    1
   13    11    14    1
   14    14    15    1
   15    14    16    1
   16    14    17    1
   17    17    18    1
   18    17    19    1
   19    17    20    1
   20    20    21    1
   21    20    22    1
   22    22    23    1
   23    22    24    1
   24    22    25    1
   25    20    26    1
   26    26    27    1
   27    26    28    1
   28    26    29    1
@<TRIPOS>SUBSTRUCTURE
       1 MOL1            1 RESIDUE      1      MOL     
@<SCITEGIC>MOL_PROPERTY
VM2 Rank
SciTegic.value.IntegerValue
146

@<SCITEGIC>MOL_PROPERTY
Conf_Id
SciTegic.value.IntegerValue
106

@<SCITEGIC>MOL_PROPERTY
Probability
SciTegic.value.DoubleValue
0.01

@<SCITEGIC>MOL_PROPERTY
Sum Probability
SciTegic.value.DoubleValue
99.87

@<SCITEGIC>MOL_PROPERTY
Delta G
SciTegic.value.DoubleValue
4.394

@<SCITEGIC>MOL_PROPERTY
G
SciTegic.value.DoubleValue
38.096

@<SCITEGIC>MOL_PROPERTY
E
SciTegic.value.DoubleValue
0.103

@<SCITEGIC>MOL_PROPERTY
-TS
SciTegic.value.DoubleValue
37.994

@<SCITEGIC>MOL_PROPERTY
U+W
SciTegic.value.DoubleValue
-24.042

@<SCITEGIC>MOL_PROPERTY
U
SciTegic.value.DoubleValue
28.220

@<SCITEGIC>MOL_PROPERTY
W
SciTegic.value.DoubleValue
-52.262

@<SCITEGIC>MOL_PROPERTY
W(PB)
SciTegic.value.DoubleValue
-54.724

@<SCITEGIC>MOL_PROPERTY
W(SA)
SciTegic.value.DoubleValue
2.462

@<SCITEGIC>MOL_PROPERTY
Valence
SciTegic.value.DoubleValue
7.040

@<SCITEGIC>MOL_PROPERTY
Coulomb
SciTegic.value.DoubleValue
19.984

@<SCITEGIC>MOL_PROPERTY
VdW
SciTegic.value.DoubleValue
1.197

@<SCITEGIC>MOL_PROPERTY
VdW6
SciTegic.value.DoubleValue
-10.566

@<SCITEGIC>MOL_PROPERTY
VdW12
SciTegic.value.DoubleValue
11.762

@<SCITEGIC>MOL_PROPERTY
Bond
SciTegic.value.DoubleValue
0.320

@<SCITEGIC>MOL_PROPERTY
Angle
SciTegic.value.DoubleValue
2.281

@<SCITEGIC>MOL_PROPERTY
Pdih
SciTegic.value.DoubleValue
4.439

@<SCITEGIC>MOL_PROPERTY
Idih
SciTegic.value.DoubleValue
0.000

@<SCITEGIC>MOL_PROPERTY
Tether
SciTegic.value.DoubleValue
0.000

@<TRIPOS>MOLECULE
guest-s15_vm2.mol2 : vm2 ligand conformer 147
          29          28           1
SMALL
USER_CHARGES
 
@<TRIPOS>ATOM
       1    C1      20.072402   17.809506   20.184605 C.3        1 MOL1        -0.2426
       2    H1      21.067118   17.551992   20.570904 H          1 MOL1         0.0959
       3    H2      19.322818   17.271783   20.778277 H          1 MOL1         0.0959
       4    H3      20.005735   17.437654   19.153981 H          1 MOL1         0.0959
       5    C2      19.839155   19.336837   20.224509 C.3        1 MOL1        -0.1410
       6    H4      18.827793   19.566181   19.860861 H          1 MOL1         0.0948
       7    H5      20.534589   19.819846   19.523930 H          1 MOL1         0.0948
       8    C3      20.043054   19.951728   21.630059 C.3        1 MOL1        -0.1435
       9    H6      21.065403   19.738676   21.966851 H          1 MOL1         0.0948
      10    H7      19.965273   21.044435   21.546917 H          1 MOL1         0.0948
      11    C4      19.013866   19.447919   22.674102 C.3        1 MOL1        -0.1435
      12    H8      19.139740   18.371959   22.833282 H          1 MOL1         0.0948
      13    H9      18.004244   19.577995   22.260934 H          1 MOL1         0.0948
      14    C5      19.084300   20.205141   24.026739 C.3        1 MOL1        -0.1435
      15    H10     18.999817   21.280547   23.818090 H          1 MOL1         0.0948
      16    H11     18.199424   19.956973   24.626668 H          1 MOL1         0.0948
      17    C6      20.376406   19.964187   24.861324 C.3        1 MOL1        -0.1500
      18    H12     20.603346   20.887710   25.409910 H          1 MOL1         0.0948
      19    H13     21.238102   19.806324   24.202914 H          1 MOL1         0.0948
      20    C7      20.316640   18.816805   25.900261 C.3        1 MOL1         0.1162
      21    H14     21.293070   18.781868   26.393284 H          1 MOL1         0.0910
      22    C8      20.074955   17.439766   25.262005 C.3        1 MOL1        -0.2491
      23    H15     20.220231   16.644320   26.003109 H          1 MOL1         0.0959
      24    H16     19.053117   17.350713   24.875112 H          1 MOL1         0.0959
      25    H17     20.778308   17.260991   24.439225 H          1 MOL1         0.0959
      26    N1      19.315222   19.084112   26.990395 N.4        1 MOL1        -0.5987
      27    H18     19.500941   19.974514   27.460868 H          1 MOL1         0.3605
      28    H19     19.335494   18.350510   27.704547 H          1 MOL1         0.3605
      29    H20     18.363061   19.124703   26.618841 H          1 MOL1         0.3605
@<TRIPOS>BOND
    1     1     2    1
    2     1     3    1
    3     1     4    1
    4     1     5    1
    5     5     6    1
    6     5     7    1
    7     5     8    1
    8     8     9    1
    9     8    10    1
   10     8    11    1
   11    11    12    1
   12    11    13    1
   13    11    14    1
   14    14    15    1
   15    14    16    1
   16    14    17    1
   17    17    18    1
   18    17    19    1
   19    17    20    1
   20    20    21    1
   21    20    22    1
   22    22    23    1
   23    22    24    1
   24    22    25    1
   25    20    26    1
   26    26    27    1
   27    26    28    1
   28    26    29    1
@<TRIPOS>SUBSTRUCTURE
       1 MOL1            1 RESIDUE      1      MOL     
@<SCITEGIC>MOL_PROPERTY
VM2 Rank
SciTegic.value.IntegerValue
147

@<SCITEGIC>MOL_PROPERTY
Conf_Id
SciTegic.value.IntegerValue
1292

@<SCITEGIC>MOL_PROPERTY
Probability
SciTegic.value.DoubleValue
0.01

@<SCITEGIC>MOL_PROPERTY
Sum Probability
SciTegic.value.DoubleValue
99.87

@<SCITEGIC>MOL_PROPERTY
Delta G
SciTegic.value.DoubleValue
4.425

@<SCITEGIC>MOL_PROPERTY
G
SciTegic.value.DoubleValue
38.127

@<SCITEGIC>MOL_PROPERTY
E
SciTegic.value.DoubleValue
0.404

@<SCITEGIC>MOL_PROPERTY
-TS
SciTegic.value.DoubleValue
37.723

@<SCITEGIC>MOL_PROPERTY
U+W
SciTegic.value.DoubleValue
-23.741

@<SCITEGIC>MOL_PROPERTY
U
SciTegic.value.DoubleValue
28.724

@<SCITEGIC>MOL_PROPERTY
W
SciTegic.value.DoubleValue
-52.465

@<SCITEGIC>MOL_PROPERTY
W(PB)
SciTegic.value.DoubleValue
-54.864

@<SCITEGIC>MOL_PROPERTY
W(SA)
SciTegic.value.DoubleValue
2.399

@<SCITEGIC>MOL_PROPERTY
Valence
SciTegic.value.DoubleValue
7.454

@<SCITEGIC>MOL_PROPERTY
Coulomb
SciTegic.value.DoubleValue
19.992

@<SCITEGIC>MOL_PROPERTY
VdW
SciTegic.value.DoubleValue
1.279

@<SCITEGIC>MOL_PROPERTY
VdW6
SciTegic.value.DoubleValue
-10.881

@<SCITEGIC>MOL_PROPERTY
VdW12
SciTegic.value.DoubleValue
12.160

@<SCITEGIC>MOL_PROPERTY
Bond
SciTegic.value.DoubleValue
0.391

@<SCITEGIC>MOL_PROPERTY
Angle
SciTegic.value.DoubleValue
2.489

@<SCITEGIC>MOL_PROPERTY
Pdih
SciTegic.value.DoubleValue
4.574

@<SCITEGIC>MOL_PROPERTY
Idih
SciTegic.value.DoubleValue
0.000

@<SCITEGIC>MOL_PROPERTY
Tether
SciTegic.value.DoubleValue
0.000

@<TRIPOS>MOLECULE
guest-s15_vm2.mol2 : vm2 ligand conformer 148
          29          28           1
SMALL
USER_CHARGES
 
@<TRIPOS>ATOM
       1    C1      19.110927   20.680578   20.374594 C.3        1 MOL1        -0.2426
       2    H1      18.943295   21.758589   20.496302 H          1 MOL1         0.0959
       3    H2      19.734542   20.535347   19.482834 H          1 MOL1         0.0959
       4    H3      18.137689   20.206465   20.192247 H          1 MOL1         0.0959
       5    C2      19.788752   20.089511   21.628653 C.3        1 MOL1        -0.1410
       6    H4      19.157678   20.295104   22.499890 H          1 MOL1         0.0948
       7    H5      20.743799   20.605213   21.800425 H          1 MOL1         0.0948
       8    C3      20.036786   18.569446   21.477637 C.3        1 MOL1        -0.1435
       9    H6      19.087758   18.043093   21.306610 H          1 MOL1         0.0948
      10    H7      20.636464   18.413336   20.570189 H          1 MOL1         0.0948
      11    C4      20.794320   17.930013   22.670969 C.3        1 MOL1        -0.1435
      12    H8      21.514300   18.641950   23.095907 H          1 MOL1         0.0948
      13    H9      21.403148   17.105434   22.275002 H          1 MOL1         0.0948
      14    C5      19.886395   17.333347   23.780137 C.3        1 MOL1        -0.1435
      15    H10     19.223631   16.580579   23.331687 H          1 MOL1         0.0948
      16    H11     20.516476   16.778604   24.488029 H          1 MOL1         0.0948
      17    C6      19.020887   18.353011   24.564789 C.3        1 MOL1        -0.1500
      18    H12     18.472657   17.818905   25.352083 H          1 MOL1         0.0948
      19    H13     18.252897   18.754686   23.892704 H          1 MOL1         0.0948
      20    C7      19.809257   19.521688   25.201417 C.3        1 MOL1         0.1162
      21    H14     20.368443   20.031484   24.411545 H          1 MOL1         0.0910
      22    C8      20.808454   19.032332   26.264506 C.3        1 MOL1        -0.2491
      23    H15     21.575084   18.385829   25.821770 H          1 MOL1         0.0959
      24    H16     21.326491   19.880969   26.727872 H          1 MOL1         0.0959
      25    H17     20.300179   18.469508   27.057294 H          1 MOL1         0.0959
      26    N1      18.880222   20.546074   25.791297 N.4        1 MOL1        -0.5987
      27    H18     19.397298   21.340759   26.178393 H          1 MOL1         0.3605
      28    H19     18.320589   20.148216   26.550476 H          1 MOL1         0.3605
      29    H20     18.230577   20.915842   25.091521 H          1 MOL1         0.3605
@<TRIPOS>BOND
    1     1     2    1
    2     1     3    1
    3     1     4    1
    4     1     5    1
    5     5     6    1
    6     5     7    1
    7     5     8    1
    8     8     9    1
    9     8    10    1
   10     8    11    1
   11    11    12    1
   12    11    13    1
   13    11    14    1
   14    14    15    1
   15    14    16    1
   16    14    17    1
   17    17    18    1
   18    17    19    1
   19    17    20    1
   20    20    21    1
   21    20    22    1
   22    22    23    1
   23    22    24    1
   24    22    25    1
   25    20    26    1
   26    26    27    1
   27    26    28    1
   28    26    29    1
@<TRIPOS>SUBSTRUCTURE
       1 MOL1            1 RESIDUE      1      MOL     
@<SCITEGIC>MOL_PROPERTY
VM2 Rank
SciTegic.value.IntegerValue
148

@<SCITEGIC>MOL_PROPERTY
Conf_Id
SciTegic.value.IntegerValue
1672

@<SCITEGIC>MOL_PROPERTY
Probability
SciTegic.value.DoubleValue
0.01

@<SCITEGIC>MOL_PROPERTY
Sum Probability
SciTegic.value.DoubleValue
99.88

@<SCITEGIC>MOL_PROPERTY
Delta G
SciTegic.value.DoubleValue
4.483

@<SCITEGIC>MOL_PROPERTY
G
SciTegic.value.DoubleValue
38.185

@<SCITEGIC>MOL_PROPERTY
E
SciTegic.value.DoubleValue
-0.111

@<SCITEGIC>MOL_PROPERTY
-TS
SciTegic.value.DoubleValue
38.296

@<SCITEGIC>MOL_PROPERTY
U+W
SciTegic.value.DoubleValue
-24.256

@<SCITEGIC>MOL_PROPERTY
U
SciTegic.value.DoubleValue
28.796

@<SCITEGIC>MOL_PROPERTY
W
SciTegic.value.DoubleValue
-53.052

@<SCITEGIC>MOL_PROPERTY
W(PB)
SciTegic.value.DoubleValue
-55.454

@<SCITEGIC>MOL_PROPERTY
W(SA)
SciTegic.value.DoubleValue
2.402

@<SCITEGIC>MOL_PROPERTY
Valence
SciTegic.value.DoubleValue
6.977

@<SCITEGIC>MOL_PROPERTY
Coulomb
SciTegic.value.DoubleValue
21.301

@<SCITEGIC>MOL_PROPERTY
VdW
SciTegic.value.DoubleValue
0.518

@<SCITEGIC>MOL_PROPERTY
VdW6
SciTegic.value.DoubleValue
-11.513

@<SCITEGIC>MOL_PROPERTY
VdW12
SciTegic.value.DoubleValue
12.031

@<SCITEGIC>MOL_PROPERTY
Bond
SciTegic.value.DoubleValue
0.321

@<SCITEGIC>MOL_PROPERTY
Angle
SciTegic.value.DoubleValue
2.483

@<SCITEGIC>MOL_PROPERTY
Pdih
SciTegic.value.DoubleValue
4.173

@<SCITEGIC>MOL_PROPERTY
Idih
SciTegic.value.DoubleValue
0.000

@<SCITEGIC>MOL_PROPERTY
Tether
SciTegic.value.DoubleValue
0.000

@<TRIPOS>MOLECULE
guest-s15_vm2.mol2 : vm2 ligand conformer 149
          29          28           1
SMALL
USER_CHARGES
 
@<TRIPOS>ATOM
       1    C1      18.053655   19.532077   21.493350 C.3        1 MOL1        -0.2426
       2    H1      17.603328   18.532714   21.551200 H          1 MOL1         0.0959
       3    H2      18.206995   19.896166   22.513899 H          1 MOL1         0.0959
       4    H3      17.325101   20.197920   21.013019 H          1 MOL1         0.0959
       5    C2      19.369810   19.500471   20.682499 C.3        1 MOL1        -0.1410
       6    H4      19.799899   20.509339   20.614630 H          1 MOL1         0.0948
       7    H5      19.121639   19.208686   19.652395 H          1 MOL1         0.0948
       8    C3      20.421703   18.501970   21.231869 C.3        1 MOL1        -0.1435
       9    H6      19.927442   17.628709   21.677250 H          1 MOL1         0.0948
      10    H7      20.986032   18.107563   20.375565 H          1 MOL1         0.0948
      11    C4      21.455832   19.113438   22.215627 C.3        1 MOL1        -0.1435
      12    H8      21.991110   19.926521   21.706254 H          1 MOL1         0.0948
      13    H9      22.216485   18.352783   22.439111 H          1 MOL1         0.0948
      14    C5      20.889391   19.652877   23.552139 C.3        1 MOL1        -0.1435
      15    H10     21.720774   20.079074   24.130535 H          1 MOL1         0.0948
      16    H11     20.206819   20.486844   23.350964 H          1 MOL1         0.0948
      17    C6      20.194853   18.563204   24.408597 C.3        1 MOL1        -0.1500
      18    H12     20.888136   17.721691   24.538858 H          1 MOL1         0.0948
      19    H13     19.317578   18.166202   23.883334 H          1 MOL1         0.0948
      20    C7      19.767994   19.076604   25.800357 C.3        1 MOL1         0.1162
      21    H14     20.651928   19.482305   26.302026 H          1 MOL1         0.0910
      22    C8      19.217845   17.920674   26.650796 C.3        1 MOL1        -0.2491
      23    H15     18.946723   18.271619   27.654150 H          1 MOL1         0.0959
      24    H16     18.325403   17.478619   26.190289 H          1 MOL1         0.0959
      25    H17     19.969637   17.130045   26.766819 H          1 MOL1         0.0959
      26    N1      18.764916   20.194684   25.718767 N.4        1 MOL1        -0.5987
      27    H18     18.514523   20.539459   26.650009 H          1 MOL1         0.3605
      28    H19     17.901539   19.888239   25.262849 H          1 MOL1         0.3605
      29    H20     19.133161   20.988111   25.187265 H          1 MOL1         0.3605
@<TRIPOS>BOND
    1     1     2    1
    2     1     3    1
    3     1     4    1
    4     1     5    1
    5     5     6    1
    6     5     7    1
    7     5     8    1
    8     8     9    1
    9     8    10    1
   10     8    11    1
   11    11    12    1
   12    11    13    1
   13    11    14    1
   14    14    15    1
   15    14    16    1
   16    14    17    1
   17    17    18    1
   18    17    19    1
   19    17    20    1
   20    20    21    1
   21    20    22    1
   22    22    23    1
   23    22    24    1
   24    22    25    1
   25    20    26    1
   26    26    27    1
   27    26    28    1
   28    26    29    1
@<TRIPOS>SUBSTRUCTURE
       1 MOL1            1 RESIDUE      1      MOL     
@<SCITEGIC>MOL_PROPERTY
VM2 Rank
SciTegic.value.IntegerValue
149

@<SCITEGIC>MOL_PROPERTY
Conf_Id
SciTegic.value.IntegerValue
894

@<SCITEGIC>MOL_PROPERTY
Probability
SciTegic.value.DoubleValue
0.01

@<SCITEGIC>MOL_PROPERTY
Sum Probability
SciTegic.value.DoubleValue
99.88

@<SCITEGIC>MOL_PROPERTY
Delta G
SciTegic.value.DoubleValue
4.506

@<SCITEGIC>MOL_PROPERTY
G
SciTegic.value.DoubleValue
38.208

@<SCITEGIC>MOL_PROPERTY
E
SciTegic.value.DoubleValue
-0.043

@<SCITEGIC>MOL_PROPERTY
-TS
SciTegic.value.DoubleValue
38.252

@<SCITEGIC>MOL_PROPERTY
U+W
SciTegic.value.DoubleValue
-24.188

@<SCITEGIC>MOL_PROPERTY
U
SciTegic.value.DoubleValue
28.509

@<SCITEGIC>MOL_PROPERTY
W
SciTegic.value.DoubleValue
-52.698

@<SCITEGIC>MOL_PROPERTY
W(PB)
SciTegic.value.DoubleValue
-55.107

@<SCITEGIC>MOL_PROPERTY
W(SA)
SciTegic.value.DoubleValue
2.410

@<SCITEGIC>MOL_PROPERTY
Valence
SciTegic.value.DoubleValue
6.729

@<SCITEGIC>MOL_PROPERTY
Coulomb
SciTegic.value.DoubleValue
21.117

@<SCITEGIC>MOL_PROPERTY
VdW
SciTegic.value.DoubleValue
0.663

@<SCITEGIC>MOL_PROPERTY
VdW6
SciTegic.value.DoubleValue
-11.042

@<SCITEGIC>MOL_PROPERTY
VdW12
SciTegic.value.DoubleValue
11.705

@<SCITEGIC>MOL_PROPERTY
Bond
SciTegic.value.DoubleValue
0.323

@<SCITEGIC>MOL_PROPERTY
Angle
SciTegic.value.DoubleValue
2.297

@<SCITEGIC>MOL_PROPERTY
Pdih
SciTegic.value.DoubleValue
4.109

@<SCITEGIC>MOL_PROPERTY
Idih
SciTegic.value.DoubleValue
0.000

@<SCITEGIC>MOL_PROPERTY
Tether
SciTegic.value.DoubleValue
0.000

@<TRIPOS>MOLECULE
guest-s15_vm2.mol2 : vm2 ligand conformer 150
          29          28           1
SMALL
USER_CHARGES
 
@<TRIPOS>ATOM
       1    C1      18.340818   19.795615   20.912721 C.3        1 MOL1        -0.2426
       2    H1      18.489472   20.488019   21.749860 H          1 MOL1         0.0959
       3    H2      18.620376   20.315147   19.987070 H          1 MOL1         0.0959
       4    H3      17.268903   19.565921   20.857967 H          1 MOL1         0.0959
       5    C2      19.164253   18.499387   21.088744 C.3        1 MOL1        -0.1410
       6    H4      18.919165   17.815443   20.264286 H          1 MOL1         0.0948
       7    H5      18.862967   17.976968   22.005370 H          1 MOL1         0.0948
       8    C3      20.693678   18.739380   21.087140 C.3        1 MOL1        -0.1435
       9    H6      21.203116   17.767160   21.135196 H          1 MOL1         0.0948
      10    H7      20.977556   19.175266   20.119393 H          1 MOL1         0.0948
      11    C4      21.243756   19.650149   22.217949 C.3        1 MOL1        -0.1435
      12    H8      20.820634   20.660488   22.143469 H          1 MOL1         0.0948
      13    H9      22.320285   19.774716   22.036713 H          1 MOL1         0.0948
      14    C5      21.068612   19.086592   23.653030 C.3        1 MOL1        -0.1435
      15    H10     21.091070   17.989684   23.621644 H          1 MOL1         0.0948
      16    H11     21.938615   19.392251   24.250634 H          1 MOL1         0.0948
      17    C6      19.791809   19.595503   24.372357 C.3        1 MOL1        -0.1500
      18    H12     18.891449   19.259689   23.847049 H          1 MOL1         0.0948
      19    H13     19.783472   20.692509   24.330052 H          1 MOL1         0.0948
      20    C7      19.704873   19.165180   25.854139 C.3        1 MOL1         0.1162
      21    H14     20.630930   19.465102   26.354201 H          1 MOL1         0.0910
      22    C8      19.539072   17.642367   26.005211 C.3        1 MOL1        -0.2491
      23    H15     18.653208   17.284233   25.466052 H          1 MOL1         0.0959
      24    H16     20.414609   17.105487   25.622575 H          1 MOL1         0.0959
      25    H17     19.427736   17.368967   27.061709 H          1 MOL1         0.0959
      26    N1      18.589129   19.881827   26.562708 N.4        1 MOL1        -0.5987
      27    H18     18.552572   19.628292   27.554221 H          1 MOL1         0.3605
      28    H19     17.678725   19.652506   26.154979 H          1 MOL1         0.3605
      29    H20     18.702174   20.898469   26.512553 H          1 MOL1         0.3605
@<TRIPOS>BOND
    1     1     2    1
    2     1     3    1
    3     1     4    1
    4     1     5    1
    5     5     6    1
    6     5     7    1
    7     5     8    1
    8     8     9    1
    9     8    10    1
   10     8    11    1
   11    11    12    1
   12    11    13    1
   13    11    14    1
   14    14    15    1
   15    14    16    1
   16    14    17    1
   17    17    18    1
   18    17    19    1
   19    17    20    1
   20    20    21    1
   21    20    22    1
   22    22    23    1
   23    22    24    1
   24    22    25    1
   25    20    26    1
   26    26    27    1
   27    26    28    1
   28    26    29    1
@<TRIPOS>SUBSTRUCTURE
       1 MOL1            1 RESIDUE      1      MOL     
@<SCITEGIC>MOL_PROPERTY
VM2 Rank
SciTegic.value.IntegerValue
150

@<SCITEGIC>MOL_PROPERTY
Conf_Id
SciTegic.value.IntegerValue
961

@<SCITEGIC>MOL_PROPERTY
Probability
SciTegic.value.DoubleValue
0.01

@<SCITEGIC>MOL_PROPERTY
Sum Probability
SciTegic.value.DoubleValue
99.89

@<SCITEGIC>MOL_PROPERTY
Delta G
SciTegic.value.DoubleValue
4.508

@<SCITEGIC>MOL_PROPERTY
G
SciTegic.value.DoubleValue
38.211

@<SCITEGIC>MOL_PROPERTY
E
SciTegic.value.DoubleValue
0.010

@<SCITEGIC>MOL_PROPERTY
-TS
SciTegic.value.DoubleValue
38.201

@<SCITEGIC>MOL_PROPERTY
U+W
SciTegic.value.DoubleValue
-24.134

@<SCITEGIC>MOL_PROPERTY
U
SciTegic.value.DoubleValue
28.526

@<SCITEGIC>MOL_PROPERTY
W
SciTegic.value.DoubleValue
-52.661

@<SCITEGIC>MOL_PROPERTY
W(PB)
SciTegic.value.DoubleValue
-55.100

@<SCITEGIC>MOL_PROPERTY
W(SA)
SciTegic.value.DoubleValue
2.440

@<SCITEGIC>MOL_PROPERTY
Valence
SciTegic.value.DoubleValue
7.281

@<SCITEGIC>MOL_PROPERTY
Coulomb
SciTegic.value.DoubleValue
20.271

@<SCITEGIC>MOL_PROPERTY
VdW
SciTegic.value.DoubleValue
0.975

@<SCITEGIC>MOL_PROPERTY
VdW6
SciTegic.value.DoubleValue
-10.955

@<SCITEGIC>MOL_PROPERTY
VdW12
SciTegic.value.DoubleValue
11.930

@<SCITEGIC>MOL_PROPERTY
Bond
SciTegic.value.DoubleValue
0.337

@<SCITEGIC>MOL_PROPERTY
Angle
SciTegic.value.DoubleValue
2.512

@<SCITEGIC>MOL_PROPERTY
Pdih
SciTegic.value.DoubleValue
4.431

@<SCITEGIC>MOL_PROPERTY
Idih
SciTegic.value.DoubleValue
0.000

@<SCITEGIC>MOL_PROPERTY
Tether
SciTegic.value.DoubleValue
0.000

@<TRIPOS>MOLECULE
guest-s15_vm2.mol2 : vm2 ligand conformer 151
          29          28           1
SMALL
USER_CHARGES
 
@<TRIPOS>ATOM
       1    C1      19.675613   18.069580   19.962268 C.3        1 MOL1        -0.2426
       2    H1      20.686484   18.300242   19.601769 H          1 MOL1         0.0959
       3    H2      19.757024   17.321346   20.760401 H          1 MOL1         0.0959
       4    H3      19.120630   17.609657   19.134391 H          1 MOL1         0.0959
       5    C2      18.955816   19.346362   20.452369 C.3        1 MOL1        -0.1410
       6    H4      17.959863   19.084565   20.836061 H          1 MOL1         0.0948
       7    H5      18.789299   20.011099   19.593217 H          1 MOL1         0.0948
       8    C3      19.746529   20.121418   21.533825 C.3        1 MOL1        -0.1435
       9    H6      20.730077   20.405488   21.134856 H          1 MOL1         0.0948
      10    H7      19.216778   21.059930   21.748033 H          1 MOL1         0.0948
      11    C4      19.925826   19.329601   22.851087 C.3        1 MOL1        -0.1435
      12    H8      20.527774   18.430253   22.666343 H          1 MOL1         0.0948
      13    H9      18.939719   18.999429   23.198430 H          1 MOL1         0.0948
      14    C5      20.609587   20.184812   23.942993 C.3        1 MOL1        -0.1435
      15    H10     21.512771   20.640620   23.514182 H          1 MOL1         0.0948
      16    H11     19.956916   21.024377   24.217343 H          1 MOL1         0.0948
      17    C6      21.036721   19.402875   25.217741 C.3        1 MOL1        -0.1500
      18    H12     21.551619   20.113017   25.877922 H          1 MOL1         0.0948
      19    H13     21.795399   18.654473   24.953322 H          1 MOL1         0.0948
      20    C7      19.915809   18.731639   26.053168 C.3        1 MOL1         0.1162
      21    H14     20.298889   18.641083   27.074332 H          1 MOL1         0.0910
      22    C8      19.598904   17.300198   25.581867 C.3        1 MOL1        -0.2491
      23    H15     19.149902   17.276276   24.584652 H          1 MOL1         0.0959
      24    H16     20.509154   16.688375   25.559419 H          1 MOL1         0.0959
      25    H17     18.897120   16.818257   26.273520 H          1 MOL1         0.0959
      26    N1      18.671195   19.569516   26.158682 N.4        1 MOL1        -0.5987
      27    H18     18.874826   20.491070   26.556098 H          1 MOL1         0.3605
      28    H19     17.969092   19.124998   26.757100 H          1 MOL1         0.3605
      29    H20     18.248403   19.716895   25.238857 H          1 MOL1         0.3605
@<TRIPOS>BOND
    1     1     2    1
    2     1     3    1
    3     1     4    1
    4     1     5    1
    5     5     6    1
    6     5     7    1
    7     5     8    1
    8     8     9    1
    9     8    10    1
   10     8    11    1
   11    11    12    1
   12    11    13    1
   13    11    14    1
   14    14    15    1
   15    14    16    1
   16    14    17    1
   17    17    18    1
   18    17    19    1
   19    17    20    1
   20    20    21    1
   21    20    22    1
   22    22    23    1
   23    22    24    1
   24    22    25    1
   25    20    26    1
   26    26    27    1
   27    26    28    1
   28    26    29    1
@<TRIPOS>SUBSTRUCTURE
       1 MOL1            1 RESIDUE      1      MOL     
@<SCITEGIC>MOL_PROPERTY
VM2 Rank
SciTegic.value.IntegerValue
151

@<SCITEGIC>MOL_PROPERTY
Conf_Id
SciTegic.value.IntegerValue
205

@<SCITEGIC>MOL_PROPERTY
Probability
SciTegic.value.DoubleValue
0.01

@<SCITEGIC>MOL_PROPERTY
Sum Probability
SciTegic.value.DoubleValue
99.90

@<SCITEGIC>MOL_PROPERTY
Delta G
SciTegic.value.DoubleValue
4.517

@<SCITEGIC>MOL_PROPERTY
G
SciTegic.value.DoubleValue
38.220

@<SCITEGIC>MOL_PROPERTY
E
SciTegic.value.DoubleValue
0.211

@<SCITEGIC>MOL_PROPERTY
-TS
SciTegic.value.DoubleValue
38.008

@<SCITEGIC>MOL_PROPERTY
U+W
SciTegic.value.DoubleValue
-23.933

@<SCITEGIC>MOL_PROPERTY
U
SciTegic.value.DoubleValue
28.480

@<SCITEGIC>MOL_PROPERTY
W
SciTegic.value.DoubleValue
-52.413

@<SCITEGIC>MOL_PROPERTY
W(PB)
SciTegic.value.DoubleValue
-54.832

@<SCITEGIC>MOL_PROPERTY
W(SA)
SciTegic.value.DoubleValue
2.419

@<SCITEGIC>MOL_PROPERTY
Valence
SciTegic.value.DoubleValue
6.764

@<SCITEGIC>MOL_PROPERTY
Coulomb
SciTegic.value.DoubleValue
20.529

@<SCITEGIC>MOL_PROPERTY
VdW
SciTegic.value.DoubleValue
1.186

@<SCITEGIC>MOL_PROPERTY
VdW6
SciTegic.value.DoubleValue
-10.594

@<SCITEGIC>MOL_PROPERTY
VdW12
SciTegic.value.DoubleValue
11.780

@<SCITEGIC>MOL_PROPERTY
Bond
SciTegic.value.DoubleValue
0.333

@<SCITEGIC>MOL_PROPERTY
Angle
SciTegic.value.DoubleValue
2.588

@<SCITEGIC>MOL_PROPERTY
Pdih
SciTegic.value.DoubleValue
3.843

@<SCITEGIC>MOL_PROPERTY
Idih
SciTegic.value.DoubleValue
0.000

@<SCITEGIC>MOL_PROPERTY
Tether
SciTegic.value.DoubleValue
0.000

@<TRIPOS>MOLECULE
guest-s15_vm2.mol2 : vm2 ligand conformer 152
          29          28           1
SMALL
USER_CHARGES
 
@<TRIPOS>ATOM
       1    C1      20.926509   20.058754   20.677649 C.3        1 MOL1        -0.2426
       2    H1      22.009582   20.084205   20.501378 H          1 MOL1         0.0959
       3    H2      20.430140   20.423271   19.768997 H          1 MOL1         0.0959
       4    H3      20.705796   20.760761   21.490534 H          1 MOL1         0.0959
       5    C2      20.466896   18.623093   21.019688 C.3        1 MOL1        -0.1410
       6    H4      20.987024   18.258331   21.914442 H          1 MOL1         0.0948
       7    H5      20.775523   17.954396   20.204110 H          1 MOL1         0.0948
       8    C3      18.934648   18.498087   21.202157 C.3        1 MOL1        -0.1435
       9    H6      18.445345   18.795948   20.264626 H          1 MOL1         0.0948
      10    H7      18.681754   17.438500   21.344902 H          1 MOL1         0.0948
      11    C4      18.317438   19.321453   22.364837 C.3        1 MOL1        -0.1435
      12    H8      17.228366   19.184693   22.314781 H          1 MOL1         0.0948
      13    H9      18.480337   20.396093   22.209895 H          1 MOL1         0.0948
      14    C5      18.783501   18.895297   23.782040 C.3        1 MOL1        -0.1435
      15    H10     17.929571   19.000103   24.464093 H          1 MOL1         0.0948
      16    H11     19.041330   17.828413   23.778234 H          1 MOL1         0.0948
      17    C6      19.960744   19.748411   24.330281 C.3        1 MOL1        -0.1500
      18    H12     19.669964   20.806927   24.321304 H          1 MOL1         0.0948
      19    H13     20.826617   19.671590   23.664386 H          1 MOL1         0.0948
      20    C7      20.417226   19.381630   25.761980 C.3        1 MOL1         0.1162
      21    H14     21.212834   20.080596   26.038036 H          1 MOL1         0.0910
      22    C8      21.002151   17.960374   25.834668 C.3        1 MOL1        -0.2491
      23    H15     21.442778   17.777395   26.822364 H          1 MOL1         0.0959
      24    H16     20.234762   17.196138   25.664095 H          1 MOL1         0.0959
      25    H17     21.793907   17.825815   25.087272 H          1 MOL1         0.0959
      26    N1      19.326888   19.568902   26.780699 N.4        1 MOL1        -0.5987
      27    H18     19.664841   19.381783   27.729053 H          1 MOL1         0.3605
      28    H19     18.541988   18.937034   26.604073 H          1 MOL1         0.3605
      29    H20     18.962126   20.525695   26.768533 H          1 MOL1         0.3605
@<TRIPOS>BOND
    1     1     2    1
    2     1     3    1
    3     1     4    1
    4     1     5    1
    5     5     6    1
    6     5     7    1
    7     5     8    1
    8     8     9    1
    9     8    10    1
   10     8    11    1
   11    11    12    1
   12    11    13    1
   13    11    14    1
   14    14    15    1
   15    14    16    1
   16    14    17    1
   17    17    18    1
   18    17    19    1
   19    17    20    1
   20    20    21    1
   21    20    22    1
   22    22    23    1
   23    22    24    1
   24    22    25    1
   25    20    26    1
   26    26    27    1
   27    26    28    1
   28    26    29    1
@<TRIPOS>SUBSTRUCTURE
       1 MOL1            1 RESIDUE      1      MOL     
@<SCITEGIC>MOL_PROPERTY
VM2 Rank
SciTegic.value.IntegerValue
152

@<SCITEGIC>MOL_PROPERTY
Conf_Id
SciTegic.value.IntegerValue
1678

@<SCITEGIC>MOL_PROPERTY
Probability
SciTegic.value.DoubleValue
0.01

@<SCITEGIC>MOL_PROPERTY
Sum Probability
SciTegic.value.DoubleValue
99.90

@<SCITEGIC>MOL_PROPERTY
Delta G
SciTegic.value.DoubleValue
4.540

@<SCITEGIC>MOL_PROPERTY
G
SciTegic.value.DoubleValue
38.242

@<SCITEGIC>MOL_PROPERTY
E
SciTegic.value.DoubleValue
-0.094

@<SCITEGIC>MOL_PROPERTY
-TS
SciTegic.value.DoubleValue
38.336

@<SCITEGIC>MOL_PROPERTY
U+W
SciTegic.value.DoubleValue
-24.238

@<SCITEGIC>MOL_PROPERTY
U
SciTegic.value.DoubleValue
28.401

@<SCITEGIC>MOL_PROPERTY
W
SciTegic.value.DoubleValue
-52.639

@<SCITEGIC>MOL_PROPERTY
W(PB)
SciTegic.value.DoubleValue
-55.026

@<SCITEGIC>MOL_PROPERTY
W(SA)
SciTegic.value.DoubleValue
2.386

@<SCITEGIC>MOL_PROPERTY
Valence
SciTegic.value.DoubleValue
7.300

@<SCITEGIC>MOL_PROPERTY
Coulomb
SciTegic.value.DoubleValue
20.102

@<SCITEGIC>MOL_PROPERTY
VdW
SciTegic.value.DoubleValue
1.000

@<SCITEGIC>MOL_PROPERTY
VdW6
SciTegic.value.DoubleValue
-11.395

@<SCITEGIC>MOL_PROPERTY
VdW12
SciTegic.value.DoubleValue
12.394

@<SCITEGIC>MOL_PROPERTY
Bond
SciTegic.value.DoubleValue
0.366

@<SCITEGIC>MOL_PROPERTY
Angle
SciTegic.value.DoubleValue
2.503

@<SCITEGIC>MOL_PROPERTY
Pdih
SciTegic.value.DoubleValue
4.432

@<SCITEGIC>MOL_PROPERTY
Idih
SciTegic.value.DoubleValue
0.000

@<SCITEGIC>MOL_PROPERTY
Tether
SciTegic.value.DoubleValue
0.000

@<TRIPOS>MOLECULE
guest-s15_vm2.mol2 : vm2 ligand conformer 153
          29          28           1
SMALL
USER_CHARGES
 
@<TRIPOS>ATOM
       1    C1      21.141627   18.215579   21.246639 C.3        1 MOL1        -0.2426
       2    H1      21.463971   17.336869   20.673240 H          1 MOL1         0.0959
       3    H2      21.966019   18.940216   21.236580 H          1 MOL1         0.0959
       4    H3      20.984907   17.892434   22.280536 H          1 MOL1         0.0959
       5    C2      19.862213   18.823068   20.626466 C.3        1 MOL1        -0.1410
       6    H4      19.050767   18.082160   20.624868 H          1 MOL1         0.0948
       7    H5      20.073130   19.041505   19.570228 H          1 MOL1         0.0948
       8    C3      19.394081   20.133524   21.311125 C.3        1 MOL1        -0.1435
       9    H6      20.256385   20.706028   21.676866 H          1 MOL1         0.0948
      10    H7      18.935128   20.766877   20.539436 H          1 MOL1         0.0948
      11    C4      18.337274   19.946552   22.433405 C.3        1 MOL1        -0.1435
      12    H8      17.454557   19.449732   22.007896 H          1 MOL1         0.0948
      13    H9      17.991711   20.938469   22.755598 H          1 MOL1         0.0948
      14    C5      18.797779   19.154803   23.682346 C.3        1 MOL1        -0.1435
      15    H10     17.939437   19.069451   24.361263 H          1 MOL1         0.0948
      16    H11     19.051876   18.129051   23.391342 H          1 MOL1         0.0948
      17    C6      19.979890   19.827419   24.432874 C.3        1 MOL1        -0.1500
      18    H12     19.713971   20.867767   24.661032 H          1 MOL1         0.0948
      19    H13     20.857447   19.878182   23.777053 H          1 MOL1         0.0948
      20    C7      20.395855   19.129241   25.749015 C.3        1 MOL1         0.1162
      21    H14     21.204916   19.720472   26.189018 H          1 MOL1         0.0910
      22    C8      20.937586   17.710157   25.504349 C.3        1 MOL1        -0.2491
      23    H15     20.156198   17.035150   25.135653 H          1 MOL1         0.0959
      24    H16     21.753937   17.725644   24.771817 H          1 MOL1         0.0959
      25    H17     21.335036   17.285977   26.434559 H          1 MOL1         0.0959
      26    N1      19.289696   19.115657   26.767780 N.4        1 MOL1        -0.5987
      27    H18     19.601959   18.707757   27.653602 H          1 MOL1         0.3605
      28    H19     18.491221   18.566032   26.441028 H          1 MOL1         0.3605
      29    H20     18.952441   20.061617   26.967945 H          1 MOL1         0.3605
@<TRIPOS>BOND
    1     1     2    1
    2     1     3    1
    3     1     4    1
    4     1     5    1
    5     5     6    1
    6     5     7    1
    7     5     8    1
    8     8     9    1
    9     8    10    1
   10     8    11    1
   11    11    12    1
   12    11    13    1
   13    11    14    1
   14    14    15    1
   15    14    16    1
   16    14    17    1
   17    17    18    1
   18    17    19    1
   19    17    20    1
   20    20    21    1
   21    20    22    1
   22    22    23    1
   23    22    24    1
   24    22    25    1
   25    20    26    1
   26    26    27    1
   27    26    28    1
   28    26    29    1
@<TRIPOS>SUBSTRUCTURE
       1 MOL1            1 RESIDUE      1      MOL     
@<SCITEGIC>MOL_PROPERTY
VM2 Rank
SciTegic.value.IntegerValue
153

@<SCITEGIC>MOL_PROPERTY
Conf_Id
SciTegic.value.IntegerValue
1351

@<SCITEGIC>MOL_PROPERTY
Probability
SciTegic.value.DoubleValue
0.00

@<SCITEGIC>MOL_PROPERTY
Sum Probability
SciTegic.value.DoubleValue
99.91

@<SCITEGIC>MOL_PROPERTY
Delta G
SciTegic.value.DoubleValue
4.573

@<SCITEGIC>MOL_PROPERTY
G
SciTegic.value.DoubleValue
38.275

@<SCITEGIC>MOL_PROPERTY
E
SciTegic.value.DoubleValue
-0.224

@<SCITEGIC>MOL_PROPERTY
-TS
SciTegic.value.DoubleValue
38.499

@<SCITEGIC>MOL_PROPERTY
U+W
SciTegic.value.DoubleValue
-24.369

@<SCITEGIC>MOL_PROPERTY
U
SciTegic.value.DoubleValue
28.256

@<SCITEGIC>MOL_PROPERTY
W
SciTegic.value.DoubleValue
-52.625

@<SCITEGIC>MOL_PROPERTY
W(PB)
SciTegic.value.DoubleValue
-54.980

@<SCITEGIC>MOL_PROPERTY
W(SA)
SciTegic.value.DoubleValue
2.355

@<SCITEGIC>MOL_PROPERTY
Valence
SciTegic.value.DoubleValue
7.264

@<SCITEGIC>MOL_PROPERTY
Coulomb
SciTegic.value.DoubleValue
20.223

@<SCITEGIC>MOL_PROPERTY
VdW
SciTegic.value.DoubleValue
0.769

@<SCITEGIC>MOL_PROPERTY
VdW6
SciTegic.value.DoubleValue
-11.790

@<SCITEGIC>MOL_PROPERTY
VdW12
SciTegic.value.DoubleValue
12.559

@<SCITEGIC>MOL_PROPERTY
Bond
SciTegic.value.DoubleValue
0.367

@<SCITEGIC>MOL_PROPERTY
Angle
SciTegic.value.DoubleValue
2.657

@<SCITEGIC>MOL_PROPERTY
Pdih
SciTegic.value.DoubleValue
4.240

@<SCITEGIC>MOL_PROPERTY
Idih
SciTegic.value.DoubleValue
0.000

@<SCITEGIC>MOL_PROPERTY
Tether
SciTegic.value.DoubleValue
0.000

@<TRIPOS>MOLECULE
guest-s15_vm2.mol2 : vm2 ligand conformer 154
          29          28           1
SMALL
USER_CHARGES
 
@<TRIPOS>ATOM
       1    C1      19.843846   20.353326   20.118367 C.3        1 MOL1        -0.2426
       2    H1      20.441651   20.582114   19.226682 H          1 MOL1         0.0959
       3    H2      18.822032   20.712361   19.939714 H          1 MOL1         0.0959
       4    H3      20.267913   20.922398   20.955094 H          1 MOL1         0.0959
       5    C2      19.856853   18.834683   20.403760 C.3        1 MOL1        -0.1410
       6    H4      20.884727   18.503575   20.602186 H          1 MOL1         0.0948
       7    H5      19.542034   18.301930   19.495638 H          1 MOL1         0.0948
       8    C3      18.922085   18.416474   21.567703 C.3        1 MOL1        -0.1435
       9    H6      17.883754   18.626909   21.276630 H          1 MOL1         0.0948
      10    H7      18.982371   17.326994   21.696256 H          1 MOL1         0.0948
      11    C4      19.200375   19.101747   22.930990 C.3        1 MOL1        -0.1435
      12    H8      18.441142   18.743390   23.635412 H          1 MOL1         0.0948
      13    H9      19.055780   20.186369   22.840962 H          1 MOL1         0.0948
      14    C5      20.609778   18.801403   23.500197 C.3        1 MOL1        -0.1435
      15    H10     20.726901   17.719277   23.645149 H          1 MOL1         0.0948
      16    H11     21.365049   19.085573   22.756771 H          1 MOL1         0.0948
      17    C6      20.954489   19.557409   24.814576 C.3        1 MOL1        -0.1500
      18    H12     20.950938   20.638277   24.622282 H          1 MOL1         0.0948
      19    H13     21.992552   19.312622   25.075358 H          1 MOL1         0.0948
      20    C7      20.081564   19.265229   26.061807 C.3        1 MOL1         0.1162
      21    H14     20.609547   19.689524   26.921398 H          1 MOL1         0.0910
      22    C8      19.915215   17.758562   26.325243 C.3        1 MOL1        -0.2491
      23    H15     20.892072   17.260624   26.361971 H          1 MOL1         0.0959
      24    H16     19.418778   17.589533   27.288602 H          1 MOL1         0.0959
      25    H17     19.311655   17.275646   25.547467 H          1 MOL1         0.0959
      26    N1      18.751795   19.967166   26.031358 N.4        1 MOL1        -0.5987
      27    H18     18.224312   19.804630   26.893961 H          1 MOL1         0.3605
      28    H19     18.176853   19.641232   25.251917 H          1 MOL1         0.3605
      29    H20     18.865561   20.979722   25.929063 H          1 MOL1         0.3605
@<TRIPOS>BOND
    1     1     2    1
    2     1     3    1
    3     1     4    1
    4     1     5    1
    5     5     6    1
    6     5     7    1
    7     5     8    1
    8     8     9    1
    9     8    10    1
   10     8    11    1
   11    11    12    1
   12    11    13    1
   13    11    14    1
   14    14    15    1
   15    14    16    1
   16    14    17    1
   17    17    18    1
   18    17    19    1
   19    17    20    1
   20    20    21    1
   21    20    22    1
   22    22    23    1
   23    22    24    1
   24    22    25    1
   25    20    26    1
   26    26    27    1
   27    26    28    1
   28    26    29    1
@<TRIPOS>SUBSTRUCTURE
       1 MOL1            1 RESIDUE      1      MOL     
@<SCITEGIC>MOL_PROPERTY
VM2 Rank
SciTegic.value.IntegerValue
154

@<SCITEGIC>MOL_PROPERTY
Conf_Id
SciTegic.value.IntegerValue
698

@<SCITEGIC>MOL_PROPERTY
Probability
SciTegic.value.DoubleValue
0.00

@<SCITEGIC>MOL_PROPERTY
Sum Probability
SciTegic.value.DoubleValue
99.91

@<SCITEGIC>MOL_PROPERTY
Delta G
SciTegic.value.DoubleValue
4.607

@<SCITEGIC>MOL_PROPERTY
G
SciTegic.value.DoubleValue
38.309

@<SCITEGIC>MOL_PROPERTY
E
SciTegic.value.DoubleValue
-0.027

@<SCITEGIC>MOL_PROPERTY
-TS
SciTegic.value.DoubleValue
38.336

@<SCITEGIC>MOL_PROPERTY
U+W
SciTegic.value.DoubleValue
-24.171

@<SCITEGIC>MOL_PROPERTY
U
SciTegic.value.DoubleValue
28.516

@<SCITEGIC>MOL_PROPERTY
W
SciTegic.value.DoubleValue
-52.688

@<SCITEGIC>MOL_PROPERTY
W(PB)
SciTegic.value.DoubleValue
-55.069

@<SCITEGIC>MOL_PROPERTY
W(SA)
SciTegic.value.DoubleValue
2.382

@<SCITEGIC>MOL_PROPERTY
Valence
SciTegic.value.DoubleValue
6.153

@<SCITEGIC>MOL_PROPERTY
Coulomb
SciTegic.value.DoubleValue
21.300

@<SCITEGIC>MOL_PROPERTY
VdW
SciTegic.value.DoubleValue
1.064

@<SCITEGIC>MOL_PROPERTY
VdW6
SciTegic.value.DoubleValue
-11.581

@<SCITEGIC>MOL_PROPERTY
VdW12
SciTegic.value.DoubleValue
12.644

@<SCITEGIC>MOL_PROPERTY
Bond
SciTegic.value.DoubleValue
0.386

@<SCITEGIC>MOL_PROPERTY
Angle
SciTegic.value.DoubleValue
2.989

@<SCITEGIC>MOL_PROPERTY
Pdih
SciTegic.value.DoubleValue
2.778

@<SCITEGIC>MOL_PROPERTY
Idih
SciTegic.value.DoubleValue
0.000

@<SCITEGIC>MOL_PROPERTY
Tether
SciTegic.value.DoubleValue
0.000

@<TRIPOS>MOLECULE
guest-s15_vm2.mol2 : vm2 ligand conformer 155
          29          28           1
SMALL
USER_CHARGES
 
@<TRIPOS>ATOM
       1    C1      19.990066   18.152106   19.696738 C.3        1 MOL1        -0.2426
       2    H1      19.345428   17.816146   18.874188 H          1 MOL1         0.0959
       3    H2      20.770250   18.797068   19.271806 H          1 MOL1         0.0959
       4    H3      20.475415   17.266790   20.127866 H          1 MOL1         0.0959
       5    C2      19.166100   18.906630   20.761374 C.3        1 MOL1        -0.1410
       6    H4      18.374452   18.247342   21.144053 H          1 MOL1         0.0948
       7    H5      18.665126   19.765660   20.293474 H          1 MOL1         0.0948
       8    C3      20.050815   19.391610   21.930691 C.3        1 MOL1        -0.1435
       9    H6      20.556150   18.527398   22.379440 H          1 MOL1         0.0948
      10    H7      20.838239   20.053331   21.544454 H          1 MOL1         0.0948
      11    C4      19.224709   20.144058   23.001350 C.3        1 MOL1        -0.1435
      12    H8      18.427336   19.500630   23.390828 H          1 MOL1         0.0948
      13    H9      18.712285   20.988178   22.519440 H          1 MOL1         0.0948
      14    C5      20.081581   20.701616   24.165124 C.3        1 MOL1        -0.1435
      15    H10     20.789346   21.431399   23.748361 H          1 MOL1         0.0948
      16    H11     19.434721   21.281898   24.836436 H          1 MOL1         0.0948
      17    C6      20.893854   19.664453   24.996135 C.3        1 MOL1        -0.1500
      18    H12     21.483054   20.232498   25.727809 H          1 MOL1         0.0948
      19    H13     21.638926   19.168816   24.361174 H          1 MOL1         0.0948
      20    C7      20.092824   18.601558   25.793033 C.3        1 MOL1         0.1162
      21    H14     20.737885   18.279355   26.616308 H          1 MOL1         0.0910
      22    C8      19.782516   17.338906   24.968842 C.3        1 MOL1        -0.2491
      23    H15     19.349948   16.562454   25.611565 H          1 MOL1         0.0959
      24    H16     19.071231   17.531530   24.160423 H          1 MOL1         0.0959
      25    H17     20.698479   16.926703   24.528008 H          1 MOL1         0.0959
      26    N1      18.853535   19.155062   26.440714 N.4        1 MOL1        -0.5987
      27    H18     19.074461   19.942129   27.057392 H          1 MOL1         0.3605
      28    H19     18.376747   18.446242   27.005342 H          1 MOL1         0.3605
      29    H20     18.190456   19.490359   25.737593 H          1 MOL1         0.3605
@<TRIPOS>BOND
    1     1     2    1
    2     1     3    1
    3     1     4    1
    4     1     5    1
    5     5     6    1
    6     5     7    1
    7     5     8    1
    8     8     9    1
    9     8    10    1
   10     8    11    1
   11    11    12    1
   12    11    13    1
   13    11    14    1
   14    14    15    1
   15    14    16    1
   16    14    17    1
   17    17    18    1
   18    17    19    1
   19    17    20    1
   20    20    21    1
   21    20    22    1
   22    22    23    1
   23    22    24    1
   24    22    25    1
   25    20    26    1
   26    26    27    1
   27    26    28    1
   28    26    29    1
@<TRIPOS>SUBSTRUCTURE
       1 MOL1            1 RESIDUE      1      MOL     
@<SCITEGIC>MOL_PROPERTY
VM2 Rank
SciTegic.value.IntegerValue
155

@<SCITEGIC>MOL_PROPERTY
Conf_Id
SciTegic.value.IntegerValue
238

@<SCITEGIC>MOL_PROPERTY
Probability
SciTegic.value.DoubleValue
0.00

@<SCITEGIC>MOL_PROPERTY
Sum Probability
SciTegic.value.DoubleValue
99.91

@<SCITEGIC>MOL_PROPERTY
Delta G
SciTegic.value.DoubleValue
4.612

@<SCITEGIC>MOL_PROPERTY
G
SciTegic.value.DoubleValue
38.314

@<SCITEGIC>MOL_PROPERTY
E
SciTegic.value.DoubleValue
-0.134

@<SCITEGIC>MOL_PROPERTY
-TS
SciTegic.value.DoubleValue
38.449

@<SCITEGIC>MOL_PROPERTY
U+W
SciTegic.value.DoubleValue
-24.279

@<SCITEGIC>MOL_PROPERTY
U
SciTegic.value.DoubleValue
28.206

@<SCITEGIC>MOL_PROPERTY
W
SciTegic.value.DoubleValue
-52.485

@<SCITEGIC>MOL_PROPERTY
W(PB)
SciTegic.value.DoubleValue
-54.876

@<SCITEGIC>MOL_PROPERTY
W(SA)
SciTegic.value.DoubleValue
2.392

@<SCITEGIC>MOL_PROPERTY
Valence
SciTegic.value.DoubleValue
6.867

@<SCITEGIC>MOL_PROPERTY
Coulomb
SciTegic.value.DoubleValue
20.598

@<SCITEGIC>MOL_PROPERTY
VdW
SciTegic.value.DoubleValue
0.740

@<SCITEGIC>MOL_PROPERTY
VdW6
SciTegic.value.DoubleValue
-11.267

@<SCITEGIC>MOL_PROPERTY
VdW12
SciTegic.value.DoubleValue
12.007

@<SCITEGIC>MOL_PROPERTY
Bond
SciTegic.value.DoubleValue
0.355

@<SCITEGIC>MOL_PROPERTY
Angle
SciTegic.value.DoubleValue
2.996

@<SCITEGIC>MOL_PROPERTY
Pdih
SciTegic.value.DoubleValue
3.517

@<SCITEGIC>MOL_PROPERTY
Idih
SciTegic.value.DoubleValue
0.000

@<SCITEGIC>MOL_PROPERTY
Tether
SciTegic.value.DoubleValue
0.000

@<TRIPOS>MOLECULE
guest-s15_vm2.mol2 : vm2 ligand conformer 156
          29          28           1
SMALL
USER_CHARGES
 
@<TRIPOS>ATOM
       1    C1      18.925208   19.647629   19.813552 C.3        1 MOL1        -0.2426
       2    H1      18.219814   19.920986   20.608131 H          1 MOL1         0.0959
       3    H2      18.867646   20.423376   19.039128 H          1 MOL1         0.0959
       4    H3      18.591872   18.701658   19.367498 H          1 MOL1         0.0959
       5    C2      20.367976   19.528356   20.354133 C.3        1 MOL1        -0.1410
       6    H4      20.672272   20.478988   20.812140 H          1 MOL1         0.0948
       7    H5      21.050662   19.370893   19.507515 H          1 MOL1         0.0948
       8    C3      20.554407   18.364466   21.360566 C.3        1 MOL1        -0.1435
       9    H6      20.356138   17.414692   20.845095 H          1 MOL1         0.0948
      10    H7      21.609209   18.326212   21.665531 H          1 MOL1         0.0948
      11    C4      19.666387   18.436341   22.629457 C.3        1 MOL1        -0.1435
      12    H8      19.870129   17.548063   23.239178 H          1 MOL1         0.0948
      13    H9      18.607670   18.364486   22.347405 H          1 MOL1         0.0948
      14    C5      19.894142   19.719021   23.469936 C.3        1 MOL1        -0.1435
      15    H10     20.966394   19.873162   23.653445 H          1 MOL1         0.0948
      16    H11     19.558467   20.583868   22.882473 H          1 MOL1         0.0948
      17    C6      19.117941   19.718037   24.813508 C.3        1 MOL1        -0.1500
      18    H12     18.219670   19.091386   24.734408 H          1 MOL1         0.0948
      19    H13     18.755086   20.739020   24.991430 H          1 MOL1         0.0948
      20    C7      19.955325   19.300618   26.046363 C.3        1 MOL1         0.1162
      21    H14     20.814677   19.974442   26.117377 H          1 MOL1         0.0910
      22    C8      20.483263   17.859339   25.950140 C.3        1 MOL1        -0.2491
      23    H15     21.008267   17.577392   26.871093 H          1 MOL1         0.0959
      24    H16     19.664962   17.145850   25.792466 H          1 MOL1         0.0959
      25    H17     21.199481   17.756889   25.126634 H          1 MOL1         0.0959
      26    N1      19.171352   19.482193   27.316344 N.4        1 MOL1        -0.5987
      27    H18     18.344659   18.878913   27.334628 H          1 MOL1         0.3605
      28    H19     18.850089   20.448374   27.426501 H          1 MOL1         0.3605
      29    H20     19.735258   19.252943   28.139816 H          1 MOL1         0.3605
@<TRIPOS>BOND
    1     1     2    1
    2     1     3    1
    3     1     4    1
    4     1     5    1
    5     5     6    1
    6     5     7    1
    7     5     8    1
    8     8     9    1
    9     8    10    1
   10     8    11    1
   11    11    12    1
   12    11    13    1
   13    11    14    1
   14    14    15    1
   15    14    16    1
   16    14    17    1
   17    17    18    1
   18    17    19    1
   19    17    20    1
   20    20    21    1
   21    20    22    1
   22    22    23    1
   23    22    24    1
   24    22    25    1
   25    20    26    1
   26    26    27    1
   27    26    28    1
   28    26    29    1
@<TRIPOS>SUBSTRUCTURE
       1 MOL1            1 RESIDUE      1      MOL     
@<SCITEGIC>MOL_PROPERTY
VM2 Rank
SciTegic.value.IntegerValue
156

@<SCITEGIC>MOL_PROPERTY
Conf_Id
SciTegic.value.IntegerValue
1338

@<SCITEGIC>MOL_PROPERTY
Probability
SciTegic.value.DoubleValue
0.00

@<SCITEGIC>MOL_PROPERTY
Sum Probability
SciTegic.value.DoubleValue
99.92

@<SCITEGIC>MOL_PROPERTY
Delta G
SciTegic.value.DoubleValue
4.615

@<SCITEGIC>MOL_PROPERTY
G
SciTegic.value.DoubleValue
38.318

@<SCITEGIC>MOL_PROPERTY
E
SciTegic.value.DoubleValue
0.173

@<SCITEGIC>MOL_PROPERTY
-TS
SciTegic.value.DoubleValue
38.145

@<SCITEGIC>MOL_PROPERTY
U+W
SciTegic.value.DoubleValue
-23.972

@<SCITEGIC>MOL_PROPERTY
U
SciTegic.value.DoubleValue
28.230

@<SCITEGIC>MOL_PROPERTY
W
SciTegic.value.DoubleValue
-52.202

@<SCITEGIC>MOL_PROPERTY
W(PB)
SciTegic.value.DoubleValue
-54.646

@<SCITEGIC>MOL_PROPERTY
W(SA)
SciTegic.value.DoubleValue
2.444

@<SCITEGIC>MOL_PROPERTY
Valence
SciTegic.value.DoubleValue
7.255

@<SCITEGIC>MOL_PROPERTY
Coulomb
SciTegic.value.DoubleValue
19.721

@<SCITEGIC>MOL_PROPERTY
VdW
SciTegic.value.DoubleValue
1.254

@<SCITEGIC>MOL_PROPERTY
VdW6
SciTegic.value.DoubleValue
-10.650

@<SCITEGIC>MOL_PROPERTY
VdW12
SciTegic.value.DoubleValue
11.903

@<SCITEGIC>MOL_PROPERTY
Bond
SciTegic.value.DoubleValue
0.331

@<SCITEGIC>MOL_PROPERTY
Angle
SciTegic.value.DoubleValue
2.253

@<SCITEGIC>MOL_PROPERTY
Pdih
SciTegic.value.DoubleValue
4.670

@<SCITEGIC>MOL_PROPERTY
Idih
SciTegic.value.DoubleValue
0.000

@<SCITEGIC>MOL_PROPERTY
Tether
SciTegic.value.DoubleValue
0.000

@<TRIPOS>MOLECULE
guest-s15_vm2.mol2 : vm2 ligand conformer 157
          29          28           1
SMALL
USER_CHARGES
 
@<TRIPOS>ATOM
       1    C1      18.195354   18.916929   20.405486 C.3        1 MOL1        -0.2426
       2    H1      17.765282   18.442632   19.513852 H          1 MOL1         0.0959
       3    H2      17.888784   18.322167   21.274762 H          1 MOL1         0.0959
       4    H3      17.754089   19.917694   20.499128 H          1 MOL1         0.0959
       5    C2      19.734207   18.996994   20.285634 C.3        1 MOL1        -0.1410
       6    H4      19.989965   19.489320   19.336974 H          1 MOL1         0.0948
       7    H5      20.153639   17.982830   20.228461 H          1 MOL1         0.0948
       8    C3      20.403032   19.775363   21.444262 C.3        1 MOL1        -0.1435
       9    H6      21.474097   19.877480   21.221479 H          1 MOL1         0.0948
      10    H7      19.996759   20.795471   21.483595 H          1 MOL1         0.0948
      11    C4      20.234785   19.092542   22.822663 C.3        1 MOL1        -0.1435
      12    H8      20.603713   18.059196   22.767006 H          1 MOL1         0.0948
      13    H9      19.168878   19.047574   23.070581 H          1 MOL1         0.0948
      14    C5      20.990935   19.855186   23.935334 C.3        1 MOL1        -0.1435
      15    H10     22.023935   20.026466   23.602412 H          1 MOL1         0.0948
      16    H11     20.552051   20.853979   24.061544 H          1 MOL1         0.0948
      17    C6      21.054275   19.123232   25.306159 C.3        1 MOL1        -0.1500
      18    H12     21.658914   19.744960   25.979308 H          1 MOL1         0.0948
      19    H13     21.616872   18.186604   25.197407 H          1 MOL1         0.0948
      20    C7      19.711148   18.840326   26.028070 C.3        1 MOL1         0.1162
      21    H14     19.940111   18.765175   27.095618 H          1 MOL1         0.0910
      22    C8      19.091425   17.489879   25.623153 C.3        1 MOL1        -0.2491
      23    H15     18.770063   17.471657   24.577695 H          1 MOL1         0.0959
      24    H16     19.808893   16.673505   25.772045 H          1 MOL1         0.0959
      25    H17     18.213888   17.272103   26.244166 H          1 MOL1         0.0959
      26    N1      18.720840   19.965550   25.903239 N.4        1 MOL1        -0.5987
      27    H18     19.108894   20.844437   26.257738 H          1 MOL1         0.3605
      28    H19     17.864897   19.772445   26.431204 H          1 MOL1         0.3605
      29    H20     18.457266   20.116537   24.926361 H          1 MOL1         0.3605
@<TRIPOS>BOND
    1     1     2    1
    2     1     3    1
    3     1     4    1
    4     1     5    1
    5     5     6    1
    6     5     7    1
    7     5     8    1
    8     8     9    1
    9     8    10    1
   10     8    11    1
   11    11    12    1
   12    11    13    1
   13    11    14    1
   14    14    15    1
   15    14    16    1
   16    14    17    1
   17    17    18    1
   18    17    19    1
   19    17    20    1
   20    20    21    1
   21    20    22    1
   22    22    23    1
   23    22    24    1
   24    22    25    1
   25    20    26    1
   26    26    27    1
   27    26    28    1
   28    26    29    1
@<TRIPOS>SUBSTRUCTURE
       1 MOL1            1 RESIDUE      1      MOL     
@<SCITEGIC>MOL_PROPERTY
VM2 Rank
SciTegic.value.IntegerValue
157

@<SCITEGIC>MOL_PROPERTY
Conf_Id
SciTegic.value.IntegerValue
167

@<SCITEGIC>MOL_PROPERTY
Probability
SciTegic.value.DoubleValue
0.00

@<SCITEGIC>MOL_PROPERTY
Sum Probability
SciTegic.value.DoubleValue
99.92

@<SCITEGIC>MOL_PROPERTY
Delta G
SciTegic.value.DoubleValue
4.644

@<SCITEGIC>MOL_PROPERTY
G
SciTegic.value.DoubleValue
38.346

@<SCITEGIC>MOL_PROPERTY
E
SciTegic.value.DoubleValue
0.336

@<SCITEGIC>MOL_PROPERTY
-TS
SciTegic.value.DoubleValue
38.010

@<SCITEGIC>MOL_PROPERTY
U+W
SciTegic.value.DoubleValue
-23.808

@<SCITEGIC>MOL_PROPERTY
U
SciTegic.value.DoubleValue
28.617

@<SCITEGIC>MOL_PROPERTY
W
SciTegic.value.DoubleValue
-52.425

@<SCITEGIC>MOL_PROPERTY
W(PB)
SciTegic.value.DoubleValue
-54.855

@<SCITEGIC>MOL_PROPERTY
W(SA)
SciTegic.value.DoubleValue
2.430

@<SCITEGIC>MOL_PROPERTY
Valence
SciTegic.value.DoubleValue
6.762

@<SCITEGIC>MOL_PROPERTY
Coulomb
SciTegic.value.DoubleValue
20.675

@<SCITEGIC>MOL_PROPERTY
VdW
SciTegic.value.DoubleValue
1.180

@<SCITEGIC>MOL_PROPERTY
VdW6
SciTegic.value.DoubleValue
-10.633

@<SCITEGIC>MOL_PROPERTY
VdW12
SciTegic.value.DoubleValue
11.813

@<SCITEGIC>MOL_PROPERTY
Bond
SciTegic.value.DoubleValue
0.337

@<SCITEGIC>MOL_PROPERTY
Angle
SciTegic.value.DoubleValue
2.592

@<SCITEGIC>MOL_PROPERTY
Pdih
SciTegic.value.DoubleValue
3.833

@<SCITEGIC>MOL_PROPERTY
Idih
SciTegic.value.DoubleValue
0.000

@<SCITEGIC>MOL_PROPERTY
Tether
SciTegic.value.DoubleValue
0.000

@<TRIPOS>MOLECULE
guest-s15_vm2.mol2 : vm2 ligand conformer 158
          29          28           1
SMALL
USER_CHARGES
 
@<TRIPOS>ATOM
       1    C1      20.059264   17.896744   20.645233 C.3        1 MOL1        -0.2426
       2    H1      19.869037   17.467851   19.652901 H          1 MOL1         0.0959
       3    H2      21.047341   17.549414   20.973681 H          1 MOL1         0.0959
       4    H3      19.308121   17.485787   21.327383 H          1 MOL1         0.0959
       5    C2      20.006528   19.440540   20.582089 C.3        1 MOL1        -0.1410
       6    H4      19.013798   19.773795   20.249247 H          1 MOL1         0.0948
       7    H5      20.710435   19.767154   19.803829 H          1 MOL1         0.0948
       8    C3      20.392821   20.141615   21.910543 C.3        1 MOL1        -0.1435
       9    H6      21.171771   19.572425   22.434406 H          1 MOL1         0.0948
      10    H7      20.861309   21.101658   21.653416 H          1 MOL1         0.0948
      11    C4      19.203417   20.456904   22.857533 C.3        1 MOL1        -0.1435
      12    H8      18.464899   21.058664   22.310269 H          1 MOL1         0.0948
      13    H9      19.565345   21.107304   23.664808 H          1 MOL1         0.0948
      14    C5      18.482499   19.233250   23.480480 C.3        1 MOL1        -0.1435
      15    H10     17.673424   19.596362   24.128059 H          1 MOL1         0.0948
      16    H11     17.978619   18.664344   22.689500 H          1 MOL1         0.0948
      17    C6      19.400191   18.283475   24.296361 C.3        1 MOL1        -0.1500
      18    H12     20.112903   17.797559   23.618883 H          1 MOL1         0.0948
      19    H13     18.790118   17.475518   24.721328 H          1 MOL1         0.0948
      20    C7      20.182761   18.983443   25.429105 C.3        1 MOL1         0.1162
      21    H14     20.783492   19.784284   24.987791 H          1 MOL1         0.0910
      22    C8      21.135251   17.991237   26.114468 C.3        1 MOL1        -0.2491
      23    H15     20.581678   17.165336   26.578512 H          1 MOL1         0.0959
      24    H16     21.841065   17.565453   25.390399 H          1 MOL1         0.0959
      25    H17     21.720933   18.491709   26.895404 H          1 MOL1         0.0959
      26    N1      19.273269   19.628792   26.438188 N.4        1 MOL1        -0.5987
      27    H18     19.805107   20.114949   27.165710 H          1 MOL1         0.3605
      28    H19     18.680583   18.935377   26.902170 H          1 MOL1         0.3605
      29    H20     18.656553   20.315437   25.995576 H          1 MOL1         0.3605
@<TRIPOS>BOND
    1     1     2    1
    2     1     3    1
    3     1     4    1
    4     1     5    1
    5     5     6    1
    6     5     7    1
    7     5     8    1
    8     8     9    1
    9     8    10    1
   10     8    11    1
   11    11    12    1
   12    11    13    1
   13    11    14    1
   14    14    15    1
   15    14    16    1
   16    14    17    1
   17    17    18    1
   18    17    19    1
   19    17    20    1
   20    20    21    1
   21    20    22    1
   22    22    23    1
   23    22    24    1
   24    22    25    1
   25    20    26    1
   26    26    27    1
   27    26    28    1
   28    26    29    1
@<TRIPOS>SUBSTRUCTURE
       1 MOL1            1 RESIDUE      1      MOL     
@<SCITEGIC>MOL_PROPERTY
VM2 Rank
SciTegic.value.IntegerValue
158

@<SCITEGIC>MOL_PROPERTY
Conf_Id
SciTegic.value.IntegerValue
988

@<SCITEGIC>MOL_PROPERTY
Probability
SciTegic.value.DoubleValue
0.00

@<SCITEGIC>MOL_PROPERTY
Sum Probability
SciTegic.value.DoubleValue
99.93

@<SCITEGIC>MOL_PROPERTY
Delta G
SciTegic.value.DoubleValue
4.644

@<SCITEGIC>MOL_PROPERTY
G
SciTegic.value.DoubleValue
38.346

@<SCITEGIC>MOL_PROPERTY
E
SciTegic.value.DoubleValue
-0.137

@<SCITEGIC>MOL_PROPERTY
-TS
SciTegic.value.DoubleValue
38.484

@<SCITEGIC>MOL_PROPERTY
U+W
SciTegic.value.DoubleValue
-24.282

@<SCITEGIC>MOL_PROPERTY
U
SciTegic.value.DoubleValue
28.185

@<SCITEGIC>MOL_PROPERTY
W
SciTegic.value.DoubleValue
-52.467

@<SCITEGIC>MOL_PROPERTY
W(PB)
SciTegic.value.DoubleValue
-54.850

@<SCITEGIC>MOL_PROPERTY
W(SA)
SciTegic.value.DoubleValue
2.383

@<SCITEGIC>MOL_PROPERTY
Valence
SciTegic.value.DoubleValue
7.006

@<SCITEGIC>MOL_PROPERTY
Coulomb
SciTegic.value.DoubleValue
20.604

@<SCITEGIC>MOL_PROPERTY
VdW
SciTegic.value.DoubleValue
0.575

@<SCITEGIC>MOL_PROPERTY
VdW6
SciTegic.value.DoubleValue
-11.911

@<SCITEGIC>MOL_PROPERTY
VdW12
SciTegic.value.DoubleValue
12.487

@<SCITEGIC>MOL_PROPERTY
Bond
SciTegic.value.DoubleValue
0.358

@<SCITEGIC>MOL_PROPERTY
Angle
SciTegic.value.DoubleValue
2.605

@<SCITEGIC>MOL_PROPERTY
Pdih
SciTegic.value.DoubleValue
4.043

@<SCITEGIC>MOL_PROPERTY
Idih
SciTegic.value.DoubleValue
0.000

@<SCITEGIC>MOL_PROPERTY
Tether
SciTegic.value.DoubleValue
0.000

@<TRIPOS>MOLECULE
guest-s15_vm2.mol2 : vm2 ligand conformer 159
          29          28           1
SMALL
USER_CHARGES
 
@<TRIPOS>ATOM
       1    C1      20.319457   19.874873   19.851042 C.3        1 MOL1        -0.2426
       2    H1      21.021830   20.291631   20.583610 H          1 MOL1         0.0959
       3    H2      20.813134   19.040191   19.336724 H          1 MOL1         0.0959
       4    H3      20.116108   20.655592   19.106764 H          1 MOL1         0.0959
       5    C2      19.007159   19.413750   20.524288 C.3        1 MOL1        -0.1410
       6    H4      18.294586   19.116000   19.742500 H          1 MOL1         0.0948
       7    H5      18.541779   20.259486   21.047912 H          1 MOL1         0.0948
       8    C3      19.199145   18.221510   21.495918 C.3        1 MOL1        -0.1435
       9    H6      18.219301   17.934698   21.901745 H          1 MOL1         0.0948
      10    H7      19.553629   17.352451   20.924812 H          1 MOL1         0.0948
      11    C4      20.176417   18.474868   22.672703 C.3        1 MOL1        -0.1435
      12    H8      21.187588   18.654862   22.284523 H          1 MOL1         0.0948
      13    H9      20.245282   17.552632   23.261311 H          1 MOL1         0.0948
      14    C5      19.751501   19.654263   23.584719 C.3        1 MOL1        -0.1435
      15    H10     19.805690   20.581491   22.999193 H          1 MOL1         0.0948
      16    H11     18.700528   19.544169   23.881018 H          1 MOL1         0.0948
      17    C6      20.659430   19.824946   24.834623 C.3        1 MOL1        -0.1500
      18    H12     20.775348   20.898677   25.032561 H          1 MOL1         0.0948
      19    H13     21.671673   19.461412   24.613729 H          1 MOL1         0.0948
      20    C7      20.148917   19.165322   26.139770 C.3        1 MOL1         0.1162
      21    H14     20.894963   19.366232   26.914857 H          1 MOL1         0.0910
      22    C8      20.004577   17.639473   26.022254 C.3        1 MOL1        -0.2491
      23    H15     20.935435   17.186486   25.659402 H          1 MOL1         0.0959
      24    H16     19.780694   17.199307   27.001662 H          1 MOL1         0.0959
      25    H17     19.192494   17.364105   25.338808 H          1 MOL1         0.0959
      26    N1      18.869396   19.786994   26.628684 N.4        1 MOL1        -0.5987
      27    H18     18.106578   19.639816   25.963283 H          1 MOL1         0.3605
      28    H19     18.970412   20.797071   26.763597 H          1 MOL1         0.3605
      29    H20     18.577662   19.386209   27.524710 H          1 MOL1         0.3605
@<TRIPOS>BOND
    1     1     2    1
    2     1     3    1
    3     1     4    1
    4     1     5    1
    5     5     6    1
    6     5     7    1
    7     5     8    1
    8     8     9    1
    9     8    10    1
   10     8    11    1
   11    11    12    1
   12    11    13    1
   13    11    14    1
   14    14    15    1
   15    14    16    1
   16    14    17    1
   17    17    18    1
   18    17    19    1
   19    17    20    1
   20    20    21    1
   21    20    22    1
   22    22    23    1
   23    22    24    1
   24    22    25    1
   25    20    26    1
   26    26    27    1
   27    26    28    1
   28    26    29    1
@<TRIPOS>SUBSTRUCTURE
       1 MOL1            1 RESIDUE      1      MOL     
@<SCITEGIC>MOL_PROPERTY
VM2 Rank
SciTegic.value.IntegerValue
159

@<SCITEGIC>MOL_PROPERTY
Conf_Id
SciTegic.value.IntegerValue
911

@<SCITEGIC>MOL_PROPERTY
Probability
SciTegic.value.DoubleValue
0.00

@<SCITEGIC>MOL_PROPERTY
Sum Probability
SciTegic.value.DoubleValue
99.93

@<SCITEGIC>MOL_PROPERTY
Delta G
SciTegic.value.DoubleValue
4.655

@<SCITEGIC>MOL_PROPERTY
G
SciTegic.value.DoubleValue
38.358

@<SCITEGIC>MOL_PROPERTY
E
SciTegic.value.DoubleValue
0.137

@<SCITEGIC>MOL_PROPERTY
-TS
SciTegic.value.DoubleValue
38.220

@<SCITEGIC>MOL_PROPERTY
U+W
SciTegic.value.DoubleValue
-24.007

@<SCITEGIC>MOL_PROPERTY
U
SciTegic.value.DoubleValue
28.527

@<SCITEGIC>MOL_PROPERTY
W
SciTegic.value.DoubleValue
-52.534

@<SCITEGIC>MOL_PROPERTY
W(PB)
SciTegic.value.DoubleValue
-54.949

@<SCITEGIC>MOL_PROPERTY
W(SA)
SciTegic.value.DoubleValue
2.416

@<SCITEGIC>MOL_PROPERTY
Valence
SciTegic.value.DoubleValue
7.259

@<SCITEGIC>MOL_PROPERTY
Coulomb
SciTegic.value.DoubleValue
20.050

@<SCITEGIC>MOL_PROPERTY
VdW
SciTegic.value.DoubleValue
1.218

@<SCITEGIC>MOL_PROPERTY
VdW6
SciTegic.value.DoubleValue
-11.104

@<SCITEGIC>MOL_PROPERTY
VdW12
SciTegic.value.DoubleValue
12.323

@<SCITEGIC>MOL_PROPERTY
Bond
SciTegic.value.DoubleValue
0.363

@<SCITEGIC>MOL_PROPERTY
Angle
SciTegic.value.DoubleValue
2.393

@<SCITEGIC>MOL_PROPERTY
Pdih
SciTegic.value.DoubleValue
4.503

@<SCITEGIC>MOL_PROPERTY
Idih
SciTegic.value.DoubleValue
0.000

@<SCITEGIC>MOL_PROPERTY
Tether
SciTegic.value.DoubleValue
0.000

@<TRIPOS>MOLECULE
guest-s15_vm2.mol2 : vm2 ligand conformer 160
          29          28           1
SMALL
USER_CHARGES
 
@<TRIPOS>ATOM
       1    C1      18.462076   18.910918   19.956701 C.3        1 MOL1        -0.2426
       2    H1      17.585599   18.590494   20.534891 H          1 MOL1         0.0959
       3    H2      18.235039   19.884078   19.502156 H          1 MOL1         0.0959
       4    H3      18.613623   18.187314   19.145265 H          1 MOL1         0.0959
       5    C2      19.716092   18.995568   20.852228 C.3        1 MOL1        -0.1410
       6    H4      20.581545   19.287854   20.241364 H          1 MOL1         0.0948
       7    H5      19.933731   17.997999   21.256477 H          1 MOL1         0.0948
       8    C3      19.525354   20.007943   22.005678 C.3        1 MOL1        -0.1435
       9    H6      19.246327   20.982078   21.580803 H          1 MOL1         0.0948
      10    H7      18.678516   19.696441   22.629534 H          1 MOL1         0.0948
      11    C4      20.796087   20.199149   22.873987 C.3        1 MOL1        -0.1435
      12    H8      20.619521   20.986973   23.616008 H          1 MOL1         0.0948
      13    H9      21.599602   20.588566   22.233574 H          1 MOL1         0.0948
      14    C5      21.316857   18.919258   23.581506 C.3        1 MOL1        -0.1435
      15    H10     21.695228   18.225531   22.818941 H          1 MOL1         0.0948
      16    H11     22.192855   19.186167   24.188649 H          1 MOL1         0.0948
      17    C6      20.302113   18.156456   24.477121 C.3        1 MOL1        -0.1500
      18    H12     20.790482   17.222970   24.786964 H          1 MOL1         0.0948
      19    H13     19.423262   17.848534   23.896879 H          1 MOL1         0.0948
      20    C7      19.863997   18.918635   25.749981 C.3        1 MOL1         0.1162
      21    H14     20.747039   19.397569   26.183936 H          1 MOL1         0.0910
      22    C8      19.287701   17.941095   26.787397 C.3        1 MOL1        -0.2491
      23    H15     18.993146   18.472699   27.700697 H          1 MOL1         0.0959
      24    H16     18.405205   17.420619   26.394599 H          1 MOL1         0.0959
      25    H17     20.032421   17.186414   27.069517 H          1 MOL1         0.0959
      26    N1      18.865724   20.006976   25.469402 N.4        1 MOL1        -0.5987
      27    H18     18.649149   20.542916   26.314811 H          1 MOL1         0.3605
      28    H19     17.986120   19.620531   25.117177 H          1 MOL1         0.3605
      29    H20     19.219836   20.661165   24.767438 H          1 MOL1         0.3605
@<TRIPOS>BOND
    1     1     2    1
    2     1     3    1
    3     1     4    1
    4     1     5    1
    5     5     6    1
    6     5     7    1
    7     5     8    1
    8     8     9    1
    9     8    10    1
   10     8    11    1
   11    11    12    1
   12    11    13    1
   13    11    14    1
   14    14    15    1
   15    14    16    1
   16    14    17    1
   17    17    18    1
   18    17    19    1
   19    17    20    1
   20    20    21    1
   21    20    22    1
   22    22    23    1
   23    22    24    1
   24    22    25    1
   25    20    26    1
   26    26    27    1
   27    26    28    1
   28    26    29    1
@<TRIPOS>SUBSTRUCTURE
       1 MOL1            1 RESIDUE      1      MOL     
@<SCITEGIC>MOL_PROPERTY
VM2 Rank
SciTegic.value.IntegerValue
160

@<SCITEGIC>MOL_PROPERTY
Conf_Id
SciTegic.value.IntegerValue
1497

@<SCITEGIC>MOL_PROPERTY
Probability
SciTegic.value.DoubleValue
0.00

@<SCITEGIC>MOL_PROPERTY
Sum Probability
SciTegic.value.DoubleValue
99.94

@<SCITEGIC>MOL_PROPERTY
Delta G
SciTegic.value.DoubleValue
4.680

@<SCITEGIC>MOL_PROPERTY
G
SciTegic.value.DoubleValue
38.383

@<SCITEGIC>MOL_PROPERTY
E
SciTegic.value.DoubleValue
0.127

@<SCITEGIC>MOL_PROPERTY
-TS
SciTegic.value.DoubleValue
38.255

@<SCITEGIC>MOL_PROPERTY
U+W
SciTegic.value.DoubleValue
-24.017

@<SCITEGIC>MOL_PROPERTY
U
SciTegic.value.DoubleValue
28.175

@<SCITEGIC>MOL_PROPERTY
W
SciTegic.value.DoubleValue
-52.192

@<SCITEGIC>MOL_PROPERTY
W(PB)
SciTegic.value.DoubleValue
-54.622

@<SCITEGIC>MOL_PROPERTY
W(SA)
SciTegic.value.DoubleValue
2.430

@<SCITEGIC>MOL_PROPERTY
Valence
SciTegic.value.DoubleValue
5.874

@<SCITEGIC>MOL_PROPERTY
Coulomb
SciTegic.value.DoubleValue
21.577

@<SCITEGIC>MOL_PROPERTY
VdW
SciTegic.value.DoubleValue
0.725

@<SCITEGIC>MOL_PROPERTY
VdW6
SciTegic.value.DoubleValue
-11.267

@<SCITEGIC>MOL_PROPERTY
VdW12
SciTegic.value.DoubleValue
11.991

@<SCITEGIC>MOL_PROPERTY
Bond
SciTegic.value.DoubleValue
0.343

@<SCITEGIC>MOL_PROPERTY
Angle
SciTegic.value.DoubleValue
2.489

@<SCITEGIC>MOL_PROPERTY
Pdih
SciTegic.value.DoubleValue
3.042

@<SCITEGIC>MOL_PROPERTY
Idih
SciTegic.value.DoubleValue
0.000

@<SCITEGIC>MOL_PROPERTY
Tether
SciTegic.value.DoubleValue
0.000

@<TRIPOS>MOLECULE
guest-s15_vm2.mol2 : vm2 ligand conformer 161
          29          28           1
SMALL
USER_CHARGES
 
@<TRIPOS>ATOM
       1    C1      18.267894   19.643118   19.915032 C.3        1 MOL1        -0.2426
       2    H1      18.421907   18.682364   19.406618 H          1 MOL1         0.0959
       3    H2      17.364610   19.561744   20.533627 H          1 MOL1         0.0959
       4    H3      18.082659   20.405027   19.146776 H          1 MOL1         0.0959
       5    C2      19.495133   20.020152   20.771377 C.3        1 MOL1        -0.1410
       6    H4      19.325111   20.999700   21.239577 H          1 MOL1         0.0948
       7    H5      20.374068   20.128487   20.120466 H          1 MOL1         0.0948
       8    C3      19.779294   18.961472   21.859440 C.3        1 MOL1        -0.1435
       9    H6      18.888206   18.845740   22.488473 H          1 MOL1         0.0948
      10    H7      19.956265   17.987067   21.383462 H          1 MOL1         0.0948
      11    C4      21.007039   19.340837   22.722207 C.3        1 MOL1        -0.1435
      12    H8      20.862358   20.322699   23.188788 H          1 MOL1         0.0948
      13    H9      21.876367   19.458819   22.060433 H          1 MOL1         0.0948
      14    C5      21.363111   18.282830   23.797592 C.3        1 MOL1        -0.1435
      15    H10     21.647665   17.351923   23.287950 H          1 MOL1         0.0948
      16    H11     22.264335   18.615663   24.330873 H          1 MOL1         0.0948
      17    C6      20.261033   17.951190   24.841488 C.3        1 MOL1        -0.1500
      18    H12     20.659079   17.152093   25.481022 H          1 MOL1         0.0948
      19    H13     19.377880   17.521105   24.352575 H          1 MOL1         0.0948
      20    C7      19.846790   19.138617   25.742537 C.3        1 MOL1         0.1162
      21    H14     20.747017   19.705565   25.998758 H          1 MOL1         0.0910
      22    C8      19.211472   18.627913   27.046183 C.3        1 MOL1        -0.2491
      23    H15     18.930923   19.465977   27.696133 H          1 MOL1         0.0959
      24    H16     18.310333   18.035771   26.842935 H          1 MOL1         0.0959
      25    H17     19.915939   17.998265   27.603887 H          1 MOL1         0.0959
      26    N1      18.904235   20.089872   25.058145 N.4        1 MOL1        -0.5987
      27    H18     18.714023   20.911428   25.639422 H          1 MOL1         0.3605
      28    H19     18.006373   19.641121   24.858523 H          1 MOL1         0.3605
      29    H20     19.290463   20.417289   24.168913 H          1 MOL1         0.3605
@<TRIPOS>BOND
    1     1     2    1
    2     1     3    1
    3     1     4    1
    4     1     5    1
    5     5     6    1
    6     5     7    1
    7     5     8    1
    8     8     9    1
    9     8    10    1
   10     8    11    1
   11    11    12    1
   12    11    13    1
   13    11    14    1
   14    14    15    1
   15    14    16    1
   16    14    17    1
   17    17    18    1
   18    17    19    1
   19    17    20    1
   20    20    21    1
   21    20    22    1
   22    22    23    1
   23    22    24    1
   24    22    25    1
   25    20    26    1
   26    26    27    1
   27    26    28    1
   28    26    29    1
@<TRIPOS>SUBSTRUCTURE
       1 MOL1            1 RESIDUE      1      MOL     
@<SCITEGIC>MOL_PROPERTY
VM2 Rank
SciTegic.value.IntegerValue
161

@<SCITEGIC>MOL_PROPERTY
Conf_Id
SciTegic.value.IntegerValue
549

@<SCITEGIC>MOL_PROPERTY
Probability
SciTegic.value.DoubleValue
0.00

@<SCITEGIC>MOL_PROPERTY
Sum Probability
SciTegic.value.DoubleValue
99.94

@<SCITEGIC>MOL_PROPERTY
Delta G
SciTegic.value.DoubleValue
4.701

@<SCITEGIC>MOL_PROPERTY
G
SciTegic.value.DoubleValue
38.403

@<SCITEGIC>MOL_PROPERTY
E
SciTegic.value.DoubleValue
0.345

@<SCITEGIC>MOL_PROPERTY
-TS
SciTegic.value.DoubleValue
38.058

@<SCITEGIC>MOL_PROPERTY
U+W
SciTegic.value.DoubleValue
-23.799

@<SCITEGIC>MOL_PROPERTY
U
SciTegic.value.DoubleValue
27.762

@<SCITEGIC>MOL_PROPERTY
W
SciTegic.value.DoubleValue
-51.561

@<SCITEGIC>MOL_PROPERTY
W(PB)
SciTegic.value.DoubleValue
-54.038

@<SCITEGIC>MOL_PROPERTY
W(SA)
SciTegic.value.DoubleValue
2.477

@<SCITEGIC>MOL_PROPERTY
Valence
SciTegic.value.DoubleValue
5.446

@<SCITEGIC>MOL_PROPERTY
Coulomb
SciTegic.value.DoubleValue
21.561

@<SCITEGIC>MOL_PROPERTY
VdW
SciTegic.value.DoubleValue
0.755

@<SCITEGIC>MOL_PROPERTY
VdW6
SciTegic.value.DoubleValue
-10.491

@<SCITEGIC>MOL_PROPERTY
VdW12
SciTegic.value.DoubleValue
11.246

@<SCITEGIC>MOL_PROPERTY
Bond
SciTegic.value.DoubleValue
0.290

@<SCITEGIC>MOL_PROPERTY
Angle
SciTegic.value.DoubleValue
2.160

@<SCITEGIC>MOL_PROPERTY
Pdih
SciTegic.value.DoubleValue
2.996

@<SCITEGIC>MOL_PROPERTY
Idih
SciTegic.value.DoubleValue
0.000

@<SCITEGIC>MOL_PROPERTY
Tether
SciTegic.value.DoubleValue
0.000

@<TRIPOS>MOLECULE
guest-s15_vm2.mol2 : vm2 ligand conformer 162
          29          28           1
SMALL
USER_CHARGES
 
@<TRIPOS>ATOM
       1    C1      20.612387   20.443054   20.583091 C.3        1 MOL1        -0.2426
       2    H1      20.254070   21.184849   21.308515 H          1 MOL1         0.0959
       3    H2      21.470098   19.915014   21.017587 H          1 MOL1         0.0959
       4    H3      20.973764   20.984385   19.699230 H          1 MOL1         0.0959
       5    C2      19.488322   19.459419   20.191287 C.3        1 MOL1        -0.1410
       6    H4      19.891529   18.696366   19.510948 H          1 MOL1         0.0948
       7    H5      18.726098   20.005729   19.618341 H          1 MOL1         0.0948
       8    C3      18.798420   18.770648   21.396134 C.3        1 MOL1        -0.1435
       9    H6      18.308988   19.526280   22.022887 H          1 MOL1         0.0948
      10    H7      17.986582   18.145937   20.998844 H          1 MOL1         0.0948
      11    C4      19.733542   17.864114   22.242568 C.3        1 MOL1        -0.1435
      12    H8      20.534058   17.469829   21.601668 H          1 MOL1         0.0948
      13    H9      19.168477   16.984190   22.579726 H          1 MOL1         0.0948
      14    C5      20.357626   18.550197   23.485643 C.3        1 MOL1        -0.1435
      15    H10     21.178415   17.915263   23.843301 H          1 MOL1         0.0948
      16    H11     20.808972   19.510016   23.207294 H          1 MOL1         0.0948
      17    C6      19.340689   18.766109   24.637006 C.3        1 MOL1        -0.1500
      18    H12     18.954371   17.795297   24.974597 H          1 MOL1         0.0948
      19    H13     18.477705   19.325902   24.257516 H          1 MOL1         0.0948
      20    C7      19.922268   19.539765   25.842503 C.3        1 MOL1         0.1162
      21    H14     20.339397   20.482775   25.475956 H          1 MOL1         0.0910
      22    C8      21.040215   18.756015   26.553402 C.3        1 MOL1        -0.2491
      23    H15     20.687129   17.770341   26.881249 H          1 MOL1         0.0959
      24    H16     21.905781   18.610898   25.896874 H          1 MOL1         0.0959
      25    H17     21.392727   19.302046   27.437110 H          1 MOL1         0.0959
      26    N1      18.842530   19.906680   26.822365 N.4        1 MOL1        -0.5987
      27    H18     18.107990   20.468004   26.381685 H          1 MOL1         0.3605
      28    H19     19.216459   20.453517   27.603297 H          1 MOL1         0.3605
      29    H20     18.398002   19.073805   27.217946 H          1 MOL1         0.3605
@<TRIPOS>BOND
    1     1     2    1
    2     1     3    1
    3     1     4    1
    4     1     5    1
    5     5     6    1
    6     5     7    1
    7     5     8    1
    8     8     9    1
    9     8    10    1
   10     8    11    1
   11    11    12    1
   12    11    13    1
   13    11    14    1
   14    14    15    1
   15    14    16    1
   16    14    17    1
   17    17    18    1
   18    17    19    1
   19    17    20    1
   20    20    21    1
   21    20    22    1
   22    22    23    1
   23    22    24    1
   24    22    25    1
   25    20    26    1
   26    26    27    1
   27    26    28    1
   28    26    29    1
@<TRIPOS>SUBSTRUCTURE
       1 MOL1            1 RESIDUE      1      MOL     
@<SCITEGIC>MOL_PROPERTY
VM2 Rank
SciTegic.value.IntegerValue
162

@<SCITEGIC>MOL_PROPERTY
Conf_Id
SciTegic.value.IntegerValue
182

@<SCITEGIC>MOL_PROPERTY
Probability
SciTegic.value.DoubleValue
0.00

@<SCITEGIC>MOL_PROPERTY
Sum Probability
SciTegic.value.DoubleValue
99.94

@<SCITEGIC>MOL_PROPERTY
Delta G
SciTegic.value.DoubleValue
4.729

@<SCITEGIC>MOL_PROPERTY
G
SciTegic.value.DoubleValue
38.432

@<SCITEGIC>MOL_PROPERTY
E
SciTegic.value.DoubleValue
0.585

@<SCITEGIC>MOL_PROPERTY
-TS
SciTegic.value.DoubleValue
37.847

@<SCITEGIC>MOL_PROPERTY
U+W
SciTegic.value.DoubleValue
-23.559

@<SCITEGIC>MOL_PROPERTY
U
SciTegic.value.DoubleValue
28.875

@<SCITEGIC>MOL_PROPERTY
W
SciTegic.value.DoubleValue
-52.434

@<SCITEGIC>MOL_PROPERTY
W(PB)
SciTegic.value.DoubleValue
-54.885

@<SCITEGIC>MOL_PROPERTY
W(SA)
SciTegic.value.DoubleValue
2.450

@<SCITEGIC>MOL_PROPERTY
Valence
SciTegic.value.DoubleValue
7.510

@<SCITEGIC>MOL_PROPERTY
Coulomb
SciTegic.value.DoubleValue
19.951

@<SCITEGIC>MOL_PROPERTY
VdW
SciTegic.value.DoubleValue
1.414

@<SCITEGIC>MOL_PROPERTY
VdW6
SciTegic.value.DoubleValue
-10.241

@<SCITEGIC>MOL_PROPERTY
VdW12
SciTegic.value.DoubleValue
11.655

@<SCITEGIC>MOL_PROPERTY
Bond
SciTegic.value.DoubleValue
0.342

@<SCITEGIC>MOL_PROPERTY
Angle
SciTegic.value.DoubleValue
2.142

@<SCITEGIC>MOL_PROPERTY
Pdih
SciTegic.value.DoubleValue
5.026

@<SCITEGIC>MOL_PROPERTY
Idih
SciTegic.value.DoubleValue
0.000

@<SCITEGIC>MOL_PROPERTY
Tether
SciTegic.value.DoubleValue
0.000

@<TRIPOS>MOLECULE
guest-s15_vm2.mol2 : vm2 ligand conformer 163
          29          28           1
SMALL
USER_CHARGES
 
@<TRIPOS>ATOM
       1    C1      19.069018   19.735510   19.382959 C.3        1 MOL1        -0.2426
       2    H1      18.668436   18.794850   18.983066 H          1 MOL1         0.0959
       3    H2      18.413256   20.549948   19.048755 H          1 MOL1         0.0959
       4    H3      20.061295   19.899297   18.942728 H          1 MOL1         0.0959
       5    C2      19.146200   19.695552   20.923828 C.3        1 MOL1        -0.1410
       6    H4      18.136225   19.560631   21.335261 H          1 MOL1         0.0948
       7    H5      19.512245   20.664899   21.287565 H          1 MOL1         0.0948
       8    C3      20.068829   18.556769   21.418648 C.3        1 MOL1        -0.1435
       9    H6      19.727797   17.606379   20.985344 H          1 MOL1         0.0948
      10    H7      21.089024   18.717346   21.043612 H          1 MOL1         0.0948
      11    C4      20.098565   18.411743   22.959756 C.3        1 MOL1        -0.1435
      12    H8      20.693755   17.524161   23.214813 H          1 MOL1         0.0948
      13    H9      19.078188   18.223075   23.314680 H          1 MOL1         0.0948
      14    C5      20.692880   19.646610   23.680402 C.3        1 MOL1        -0.1435
      15    H10     21.620746   19.936034   23.168070 H          1 MOL1         0.0948
      16    H11     20.016253   20.504381   23.576140 H          1 MOL1         0.0948
      17    C6      21.032196   19.426577   25.182080 C.3        1 MOL1        -0.1500
      18    H12     21.500660   20.349354   25.548536 H          1 MOL1         0.0948
      19    H13     21.807102   18.654331   25.275571 H          1 MOL1         0.0948
      20    C7      19.856153   19.099824   26.138767 C.3        1 MOL1         0.1162
      21    H14     20.172836   19.408754   27.139765 H          1 MOL1         0.0910
      22    C8      19.559638   17.591295   26.225048 C.3        1 MOL1        -0.2491
      23    H15     19.164202   17.187728   25.288377 H          1 MOL1         0.0959
      24    H16     20.467029   17.030664   26.481401 H          1 MOL1         0.0959
      25    H17     18.819318   17.393428   27.009860 H          1 MOL1         0.0959
      26    N1      18.612521   19.892119   25.842512 N.4        1 MOL1        -0.5987
      27    H18     18.250022   19.671804   24.911599 H          1 MOL1         0.3605
      28    H19     18.795923   20.899155   25.872677 H          1 MOL1         0.3605
      29    H20     17.871226   19.694189   26.520738 H          1 MOL1         0.3605
@<TRIPOS>BOND
    1     1     2    1
    2     1     3    1
    3     1     4    1
    4     1     5    1
    5     5     6    1
    6     5     7    1
    7     5     8    1
    8     8     9    1
    9     8    10    1
   10     8    11    1
   11    11    12    1
   12    11    13    1
   13    11    14    1
   14    14    15    1
   15    14    16    1
   16    14    17    1
   17    17    18    1
   18    17    19    1
   19    17    20    1
   20    20    21    1
   21    20    22    1
   22    22    23    1
   23    22    24    1
   24    22    25    1
   25    20    26    1
   26    26    27    1
   27    26    28    1
   28    26    29    1
@<TRIPOS>SUBSTRUCTURE
       1 MOL1            1 RESIDUE      1      MOL     
@<SCITEGIC>MOL_PROPERTY
VM2 Rank
SciTegic.value.IntegerValue
163

@<SCITEGIC>MOL_PROPERTY
Conf_Id
SciTegic.value.IntegerValue
1686

@<SCITEGIC>MOL_PROPERTY
Probability
SciTegic.value.DoubleValue
0.00

@<SCITEGIC>MOL_PROPERTY
Sum Probability
SciTegic.value.DoubleValue
99.95

@<SCITEGIC>MOL_PROPERTY
Delta G
SciTegic.value.DoubleValue
4.782

@<SCITEGIC>MOL_PROPERTY
G
SciTegic.value.DoubleValue
38.484

@<SCITEGIC>MOL_PROPERTY
E
SciTegic.value.DoubleValue
0.471

@<SCITEGIC>MOL_PROPERTY
-TS
SciTegic.value.DoubleValue
38.013

@<SCITEGIC>MOL_PROPERTY
U+W
SciTegic.value.DoubleValue
-23.673

@<SCITEGIC>MOL_PROPERTY
U
SciTegic.value.DoubleValue
28.749

@<SCITEGIC>MOL_PROPERTY
W
SciTegic.value.DoubleValue
-52.422

@<SCITEGIC>MOL_PROPERTY
W(PB)
SciTegic.value.DoubleValue
-54.870

@<SCITEGIC>MOL_PROPERTY
W(SA)
SciTegic.value.DoubleValue
2.448

@<SCITEGIC>MOL_PROPERTY
Valence
SciTegic.value.DoubleValue
6.743

@<SCITEGIC>MOL_PROPERTY
Coulomb
SciTegic.value.DoubleValue
20.842

@<SCITEGIC>MOL_PROPERTY
VdW
SciTegic.value.DoubleValue
1.164

@<SCITEGIC>MOL_PROPERTY
VdW6
SciTegic.value.DoubleValue
-10.610

@<SCITEGIC>MOL_PROPERTY
VdW12
SciTegic.value.DoubleValue
11.774

@<SCITEGIC>MOL_PROPERTY
Bond
SciTegic.value.DoubleValue
0.335

@<SCITEGIC>MOL_PROPERTY
Angle
SciTegic.value.DoubleValue
2.545

@<SCITEGIC>MOL_PROPERTY
Pdih
SciTegic.value.DoubleValue
3.863

@<SCITEGIC>MOL_PROPERTY
Idih
SciTegic.value.DoubleValue
0.000

@<SCITEGIC>MOL_PROPERTY
Tether
SciTegic.value.DoubleValue
0.000

@<TRIPOS>MOLECULE
guest-s15_vm2.mol2 : vm2 ligand conformer 164
          29          28           1
SMALL
USER_CHARGES
 
@<TRIPOS>ATOM
       1    C1      19.200482   20.351877   20.497984 C.3        1 MOL1        -0.2426
       2    H1      18.280897   19.783143   20.683859 H          1 MOL1         0.0959
       3    H2      18.913379   21.396468   20.321278 H          1 MOL1         0.0959
       4    H3      19.661609   19.969742   19.578058 H          1 MOL1         0.0959
       5    C2      20.177342   20.253236   21.690960 C.3        1 MOL1        -0.1410
       6    H4      19.685791   20.625983   22.597379 H          1 MOL1         0.0948
       7    H5      21.026326   20.926877   21.509280 H          1 MOL1         0.0948
       8    C3      20.723967   18.821108   21.920332 C.3        1 MOL1        -0.1435
       9    H6      21.283420   18.514675   21.025818 H          1 MOL1         0.0948
      10    H7      21.463159   18.835477   22.730985 H          1 MOL1         0.0948
      11    C4      19.649161   17.742414   22.216235 C.3        1 MOL1        -0.1435
      12    H8      20.152343   16.773838   22.341236 H          1 MOL1         0.0948
      13    H9      19.010497   17.623167   21.331028 H          1 MOL1         0.0948
      14    C5      18.742867   17.996917   23.450710 C.3        1 MOL1        -0.1435
      15    H10     18.165368   18.920475   23.321392 H          1 MOL1         0.0948
      16    H11     17.995830   17.191591   23.474402 H          1 MOL1         0.0948
      17    C6      19.487662   17.986265   24.813522 C.3        1 MOL1        -0.1500
      18    H12     20.269305   17.215451   24.788568 H          1 MOL1         0.0948
      19    H13     18.785248   17.675103   25.598182 H          1 MOL1         0.0948
      20    C7      20.103025   19.343037   25.223819 C.3        1 MOL1         0.1162
      21    H14     20.723489   19.712210   24.404224 H          1 MOL1         0.0910
      22    C8      20.998319   19.170963   26.460889 C.3        1 MOL1        -0.2491
      23    H15     21.807074   18.457247   26.260209 H          1 MOL1         0.0959
      24    H16     21.459802   20.125568   26.742238 H          1 MOL1         0.0959
      25    H17     20.422902   18.802895   27.319592 H          1 MOL1         0.0959
      26    N1      19.053176   20.390182   25.479550 N.4        1 MOL1        -0.5987
      27    H18     18.442336   20.120862   26.255473 H          1 MOL1         0.3605
      28    H19     18.460603   20.535682   24.658144 H          1 MOL1         0.3605
      29    H20     19.474578   21.291690   25.721301 H          1 MOL1         0.3605
@<TRIPOS>BOND
    1     1     2    1
    2     1     3    1
    3     1     4    1
    4     1     5    1
    5     5     6    1
    6     5     7    1
    7     5     8    1
    8     8     9    1
    9     8    10    1
   10     8    11    1
   11    11    12    1
   12    11    13    1
   13    11    14    1
   14    14    15    1
   15    14    16    1
   16    14    17    1
   17    17    18    1
   18    17    19    1
   19    17    20    1
   20    20    21    1
   21    20    22    1
   22    22    23    1
   23    22    24    1
   24    22    25    1
   25    20    26    1
   26    26    27    1
   27    26    28    1
   28    26    29    1
@<TRIPOS>SUBSTRUCTURE
       1 MOL1            1 RESIDUE      1      MOL     
@<SCITEGIC>MOL_PROPERTY
VM2 Rank
SciTegic.value.IntegerValue
164

@<SCITEGIC>MOL_PROPERTY
Conf_Id
SciTegic.value.IntegerValue
626

@<SCITEGIC>MOL_PROPERTY
Probability
SciTegic.value.DoubleValue
0.00

@<SCITEGIC>MOL_PROPERTY
Sum Probability
SciTegic.value.DoubleValue
99.95

@<SCITEGIC>MOL_PROPERTY
Delta G
SciTegic.value.DoubleValue
4.785

@<SCITEGIC>MOL_PROPERTY
G
SciTegic.value.DoubleValue
38.487

@<SCITEGIC>MOL_PROPERTY
E
SciTegic.value.DoubleValue
-0.165

@<SCITEGIC>MOL_PROPERTY
-TS
SciTegic.value.DoubleValue
38.652

@<SCITEGIC>MOL_PROPERTY
U+W
SciTegic.value.DoubleValue
-24.309

@<SCITEGIC>MOL_PROPERTY
U
SciTegic.value.DoubleValue
28.628

@<SCITEGIC>MOL_PROPERTY
W
SciTegic.value.DoubleValue
-52.937

@<SCITEGIC>MOL_PROPERTY
W(PB)
SciTegic.value.DoubleValue
-55.336

@<SCITEGIC>MOL_PROPERTY
W(SA)
SciTegic.value.DoubleValue
2.399

@<SCITEGIC>MOL_PROPERTY
Valence
SciTegic.value.DoubleValue
6.751

@<SCITEGIC>MOL_PROPERTY
Coulomb
SciTegic.value.DoubleValue
21.512

@<SCITEGIC>MOL_PROPERTY
VdW
SciTegic.value.DoubleValue
0.364

@<SCITEGIC>MOL_PROPERTY
VdW6
SciTegic.value.DoubleValue
-12.196

@<SCITEGIC>MOL_PROPERTY
VdW12
SciTegic.value.DoubleValue
12.560

@<SCITEGIC>MOL_PROPERTY
Bond
SciTegic.value.DoubleValue
0.349

@<SCITEGIC>MOL_PROPERTY
Angle
SciTegic.value.DoubleValue
2.626

@<SCITEGIC>MOL_PROPERTY
Pdih
SciTegic.value.DoubleValue
3.776

@<SCITEGIC>MOL_PROPERTY
Idih
SciTegic.value.DoubleValue
0.000

@<SCITEGIC>MOL_PROPERTY
Tether
SciTegic.value.DoubleValue
0.000

@<TRIPOS>MOLECULE
guest-s15_vm2.mol2 : vm2 ligand conformer 165
          29          28           1
SMALL
USER_CHARGES
 
@<TRIPOS>ATOM
       1    C1      20.727072   19.284160   19.819854 C.3        1 MOL1        -0.2426
       2    H1      21.583054   19.834815   19.408779 H          1 MOL1         0.0959
       3    H2      21.099512   18.318811   20.183177 H          1 MOL1         0.0959
       4    H3      20.026365   19.092570   18.996879 H          1 MOL1         0.0959
       5    C2      20.050992   20.098993   20.946352 C.3        1 MOL1        -0.1410
       6    H4      19.780708   21.086556   20.547263 H          1 MOL1         0.0948
       7    H5      20.774650   20.282942   21.749565 H          1 MOL1         0.0948
       8    C3      18.770283   19.424635   21.502389 C.3        1 MOL1        -0.1435
       9    H6      18.204564   20.149092   22.104064 H          1 MOL1         0.0948
      10    H7      18.117598   19.176118   20.654177 H          1 MOL1         0.0948
      11    C4      19.018190   18.138416   22.336892 C.3        1 MOL1        -0.1435
      12    H8      19.931693   17.627522   22.008279 H          1 MOL1         0.0948
      13    H9      18.198933   17.436157   22.129876 H          1 MOL1         0.0948
      14    C5      19.064137   18.360538   23.870661 C.3        1 MOL1        -0.1435
      15    H10     18.101639   18.772299   24.202025 H          1 MOL1         0.0948
      16    H11     19.158534   17.376648   24.347334 H          1 MOL1         0.0948
      17    C6      20.221025   19.281750   24.341482 C.3        1 MOL1        -0.1500
      18    H12     20.069661   20.288210   23.933130 H          1 MOL1         0.0948
      19    H13     21.169939   18.918706   23.925213 H          1 MOL1         0.0948
      20    C7      20.366431   19.412802   25.876093 C.3        1 MOL1         0.1162
      21    H14     21.159938   20.142420   26.065192 H          1 MOL1         0.0910
      22    C8      20.790098   18.088491   26.535331 C.3        1 MOL1        -0.2491
      23    H15     21.024007   18.246483   27.595291 H          1 MOL1         0.0959
      24    H16     19.998047   17.332789   26.477659 H          1 MOL1         0.0959
      25    H17     21.688623   17.682987   26.053903 H          1 MOL1         0.0959
      26    N1      19.127771   19.966214   26.524948 N.4        1 MOL1        -0.5987
      27    H18     19.261607   20.103090   27.530912 H          1 MOL1         0.3605
      28    H19     18.332508   19.334145   26.403801 H          1 MOL1         0.3605
      29    H20     18.866700   20.871696   26.124295 H          1 MOL1         0.3605
@<TRIPOS>BOND
    1     1     2    1
    2     1     3    1
    3     1     4    1
    4     1     5    1
    5     5     6    1
    6     5     7    1
    7     5     8    1
    8     8     9    1
    9     8    10    1
   10     8    11    1
   11    11    12    1
   12    11    13    1
   13    11    14    1
   14    14    15    1
   15    14    16    1
   16    14    17    1
   17    17    18    1
   18    17    19    1
   19    17    20    1
   20    20    21    1
   21    20    22    1
   22    22    23    1
   23    22    24    1
   24    22    25    1
   25    20    26    1
   26    26    27    1
   27    26    28    1
   28    26    29    1
@<TRIPOS>SUBSTRUCTURE
       1 MOL1            1 RESIDUE      1      MOL     
@<SCITEGIC>MOL_PROPERTY
VM2 Rank
SciTegic.value.IntegerValue
165

@<SCITEGIC>MOL_PROPERTY
Conf_Id
SciTegic.value.IntegerValue
1356

@<SCITEGIC>MOL_PROPERTY
Probability
SciTegic.value.DoubleValue
0.00

@<SCITEGIC>MOL_PROPERTY
Sum Probability
SciTegic.value.DoubleValue
99.95

@<SCITEGIC>MOL_PROPERTY
Delta G
SciTegic.value.DoubleValue
4.786

@<SCITEGIC>MOL_PROPERTY
G
SciTegic.value.DoubleValue
38.488

@<SCITEGIC>MOL_PROPERTY
E
SciTegic.value.DoubleValue
0.546

@<SCITEGIC>MOL_PROPERTY
-TS
SciTegic.value.DoubleValue
37.942

@<SCITEGIC>MOL_PROPERTY
U+W
SciTegic.value.DoubleValue
-23.599

@<SCITEGIC>MOL_PROPERTY
U
SciTegic.value.DoubleValue
28.997

@<SCITEGIC>MOL_PROPERTY
W
SciTegic.value.DoubleValue
-52.595

@<SCITEGIC>MOL_PROPERTY
W(PB)
SciTegic.value.DoubleValue
-55.026

@<SCITEGIC>MOL_PROPERTY
W(SA)
SciTegic.value.DoubleValue
2.431

@<SCITEGIC>MOL_PROPERTY
Valence
SciTegic.value.DoubleValue
7.517

@<SCITEGIC>MOL_PROPERTY
Coulomb
SciTegic.value.DoubleValue
20.090

@<SCITEGIC>MOL_PROPERTY
VdW
SciTegic.value.DoubleValue
1.390

@<SCITEGIC>MOL_PROPERTY
VdW6
SciTegic.value.DoubleValue
-10.733

@<SCITEGIC>MOL_PROPERTY
VdW12
SciTegic.value.DoubleValue
12.123

@<SCITEGIC>MOL_PROPERTY
Bond
SciTegic.value.DoubleValue
0.363

@<SCITEGIC>MOL_PROPERTY
Angle
SciTegic.value.DoubleValue
2.272

@<SCITEGIC>MOL_PROPERTY
Pdih
SciTegic.value.DoubleValue
4.882

@<SCITEGIC>MOL_PROPERTY
Idih
SciTegic.value.DoubleValue
0.000

@<SCITEGIC>MOL_PROPERTY
Tether
SciTegic.value.DoubleValue
0.000

@<TRIPOS>MOLECULE
guest-s15_vm2.mol2 : vm2 ligand conformer 166
          29          28           1
SMALL
USER_CHARGES
 
@<TRIPOS>ATOM
       1    C1      18.381526   19.934455   20.809689 C.3        1 MOL1        -0.2426
       2    H1      18.206864   19.416710   19.857666 H          1 MOL1         0.0959
       3    H2      17.921574   19.340707   21.608546 H          1 MOL1         0.0959
       4    H3      17.857824   20.898193   20.768139 H          1 MOL1         0.0959
       5    C2      19.893091   20.149326   21.051841 C.3        1 MOL1        -0.1410
       6    H4      20.056290   20.692962   21.991066 H          1 MOL1         0.0948
       7    H5      20.283508   20.802688   20.259199 H          1 MOL1         0.0948
       8    C3      20.706676   18.832173   21.045854 C.3        1 MOL1        -0.1435
       9    H6      20.574255   18.343749   20.070646 H          1 MOL1         0.0948
      10    H7      21.775651   19.077151   21.111838 H          1 MOL1         0.0948
      11    C4      20.357163   17.811137   22.162098 C.3        1 MOL1        -0.1435
      12    H8      20.952195   16.907391   21.971012 H          1 MOL1         0.0948
      13    H9      19.310374   17.489491   22.082941 H          1 MOL1         0.0948
      14    C5      20.674312   18.290972   23.603062 C.3        1 MOL1        -0.1435
      15    H10     21.035180   17.424811   24.172893 H          1 MOL1         0.0948
      16    H11     21.502940   19.012186   23.586326 H          1 MOL1         0.0948
      17    C6      19.450160   18.893947   24.340264 C.3        1 MOL1        -0.1500
      18    H12     18.672693   18.126373   24.449953 H          1 MOL1         0.0948
      19    H13     19.011561   19.688457   23.727990 H          1 MOL1         0.0948
      20    C7      19.790364   19.488276   25.726097 C.3        1 MOL1         0.1162
      21    H14     20.595234   20.218569   25.597769 H          1 MOL1         0.0910
      22    C8      20.262366   18.412928   26.721168 C.3        1 MOL1        -0.2491
      23    H15     20.441354   18.853473   27.709718 H          1 MOL1         0.0959
      24    H16     19.512948   17.619491   26.833108 H          1 MOL1         0.0959
      25    H17     21.203504   17.954398   26.396538 H          1 MOL1         0.0959
      26    N1      18.620342   20.242785   26.293929 N.4        1 MOL1        -0.5987
      27    H18     18.316221   20.994265   25.668166 H          1 MOL1         0.3605
      28    H19     18.853750   20.671751   27.194060 H          1 MOL1         0.3605
      29    H20     17.817709   19.626614   26.448440 H          1 MOL1         0.3605
@<TRIPOS>BOND
    1     1     2    1
    2     1     3    1
    3     1     4    1
    4     1     5    1
    5     5     6    1
    6     5     7    1
    7     5     8    1
    8     8     9    1
    9     8    10    1
   10     8    11    1
   11    11    12    1
   12    11    13    1
   13    11    14    1
   14    14    15    1
   15    14    16    1
   16    14    17    1
   17    17    18    1
   18    17    19    1
   19    17    20    1
   20    20    21    1
   21    20    22    1
   22    22    23    1
   23    22    24    1
   24    22    25    1
   25    20    26    1
   26    26    27    1
   27    26    28    1
   28    26    29    1
@<TRIPOS>SUBSTRUCTURE
       1 MOL1            1 RESIDUE      1      MOL     
@<SCITEGIC>MOL_PROPERTY
VM2 Rank
SciTegic.value.IntegerValue
166

@<SCITEGIC>MOL_PROPERTY
Conf_Id
SciTegic.value.IntegerValue
142

@<SCITEGIC>MOL_PROPERTY
Probability
SciTegic.value.DoubleValue
0.00

@<SCITEGIC>MOL_PROPERTY
Sum Probability
SciTegic.value.DoubleValue
99.96

@<SCITEGIC>MOL_PROPERTY
Delta G
SciTegic.value.DoubleValue
4.796

@<SCITEGIC>MOL_PROPERTY
G
SciTegic.value.DoubleValue
38.498

@<SCITEGIC>MOL_PROPERTY
E
SciTegic.value.DoubleValue
0.265

@<SCITEGIC>MOL_PROPERTY
-TS
SciTegic.value.DoubleValue
38.233

@<SCITEGIC>MOL_PROPERTY
U+W
SciTegic.value.DoubleValue
-23.879

@<SCITEGIC>MOL_PROPERTY
U
SciTegic.value.DoubleValue
28.814

@<SCITEGIC>MOL_PROPERTY
W
SciTegic.value.DoubleValue
-52.693

@<SCITEGIC>MOL_PROPERTY
W(PB)
SciTegic.value.DoubleValue
-55.133

@<SCITEGIC>MOL_PROPERTY
W(SA)
SciTegic.value.DoubleValue
2.440

@<SCITEGIC>MOL_PROPERTY
Valence
SciTegic.value.DoubleValue
7.405

@<SCITEGIC>MOL_PROPERTY
Coulomb
SciTegic.value.DoubleValue
20.332

@<SCITEGIC>MOL_PROPERTY
VdW
SciTegic.value.DoubleValue
1.077

@<SCITEGIC>MOL_PROPERTY
VdW6
SciTegic.value.DoubleValue
-10.782

@<SCITEGIC>MOL_PROPERTY
VdW12
SciTegic.value.DoubleValue
11.859

@<SCITEGIC>MOL_PROPERTY
Bond
SciTegic.value.DoubleValue
0.335

@<SCITEGIC>MOL_PROPERTY
Angle
SciTegic.value.DoubleValue
2.433

@<SCITEGIC>MOL_PROPERTY
Pdih
SciTegic.value.DoubleValue
4.638

@<SCITEGIC>MOL_PROPERTY
Idih
SciTegic.value.DoubleValue
0.000

@<SCITEGIC>MOL_PROPERTY
Tether
SciTegic.value.DoubleValue
0.000

@<TRIPOS>MOLECULE
guest-s15_vm2.mol2 : vm2 ligand conformer 167
          29          28           1
SMALL
USER_CHARGES
 
@<TRIPOS>ATOM
       1    C1      18.926785   20.391823   19.891023 C.3        1 MOL1        -0.2426
       2    H1      18.656992   21.292366   20.457969 H          1 MOL1         0.0959
       3    H2      19.892091   20.572943   19.400485 H          1 MOL1         0.0959
       4    H3      18.171976   20.248489   19.106966 H          1 MOL1         0.0959
       5    C2      18.996525   19.155861   20.812498 C.3        1 MOL1        -0.1410
       6    H4      19.233368   18.266495   20.211785 H          1 MOL1         0.0948
       7    H5      18.009121   18.980815   21.261929 H          1 MOL1         0.0948
       8    C3      20.054391   19.331172   21.924068 C.3        1 MOL1        -0.1435
       9    H6      21.039727   19.498287   21.467495 H          1 MOL1         0.0948
      10    H7      19.820434   20.232632   22.503303 H          1 MOL1         0.0948
      11    C4      20.122345   18.094242   22.851705 C.3        1 MOL1        -0.1435
      12    H8      20.351411   17.210465   22.240207 H          1 MOL1         0.0948
      13    H9      19.141000   17.894425   23.297928 H          1 MOL1         0.0948
      14    C5      21.202149   18.206929   23.957897 C.3        1 MOL1        -0.1435
      15    H10     21.236153   17.262529   24.517287 H          1 MOL1         0.0948
      16    H11     22.184887   18.290006   23.473730 H          1 MOL1         0.0948
      17    C6      21.051332   19.392611   24.955932 C.3        1 MOL1        -0.1500
      18    H12     21.170922   20.344861   24.424270 H          1 MOL1         0.0948
      19    H13     21.899800   19.347359   25.651266 H          1 MOL1         0.0948
      20    C7      19.757583   19.444596   25.808671 C.3        1 MOL1         0.1162
      21    H14     19.922008   20.194082   26.588988 H          1 MOL1         0.0910
      22    C8      19.464156   18.108585   26.513079 C.3        1 MOL1        -0.2491
      23    H15     20.338366   17.769460   27.082541 H          1 MOL1         0.0959
      24    H16     18.631133   18.220869   27.217742 H          1 MOL1         0.0959
      25    H17     19.193979   17.323490   25.796895 H          1 MOL1         0.0959
      26    N1      18.560734   19.930181   25.039128 N.4        1 MOL1        -0.5987
      27    H18     17.725027   19.963655   25.630166 H          1 MOL1         0.3605
      28    H19     18.359436   19.316441   24.246356 H          1 MOL1         0.3605
      29    H20     18.712315   20.872928   24.669483 H          1 MOL1         0.3605
@<TRIPOS>BOND
    1     1     2    1
    2     1     3    1
    3     1     4    1
    4     1     5    1
    5     5     6    1
    6     5     7    1
    7     5     8    1
    8     8     9    1
    9     8    10    1
   10     8    11    1
   11    11    12    1
   12    11    13    1
   13    11    14    1
   14    14    15    1
   15    14    16    1
   16    14    17    1
   17    17    18    1
   18    17    19    1
   19    17    20    1
   20    20    21    1
   21    20    22    1
   22    22    23    1
   23    22    24    1
   24    22    25    1
   25    20    26    1
   26    26    27    1
   27    26    28    1
   28    26    29    1
@<TRIPOS>SUBSTRUCTURE
       1 MOL1            1 RESIDUE      1      MOL     
@<SCITEGIC>MOL_PROPERTY
VM2 Rank
SciTegic.value.IntegerValue
167

@<SCITEGIC>MOL_PROPERTY
Conf_Id
SciTegic.value.IntegerValue
650

@<SCITEGIC>MOL_PROPERTY
Probability
SciTegic.value.DoubleValue
0.00

@<SCITEGIC>MOL_PROPERTY
Sum Probability
SciTegic.value.DoubleValue
99.96

@<SCITEGIC>MOL_PROPERTY
Delta G
SciTegic.value.DoubleValue
4.823

@<SCITEGIC>MOL_PROPERTY
G
SciTegic.value.DoubleValue
38.526

@<SCITEGIC>MOL_PROPERTY
E
SciTegic.value.DoubleValue
0.046

@<SCITEGIC>MOL_PROPERTY
-TS
SciTegic.value.DoubleValue
38.480

@<SCITEGIC>MOL_PROPERTY
U+W
SciTegic.value.DoubleValue
-24.099

@<SCITEGIC>MOL_PROPERTY
U
SciTegic.value.DoubleValue
28.029

@<SCITEGIC>MOL_PROPERTY
W
SciTegic.value.DoubleValue
-52.128

@<SCITEGIC>MOL_PROPERTY
W(PB)
SciTegic.value.DoubleValue
-54.543

@<SCITEGIC>MOL_PROPERTY
W(SA)
SciTegic.value.DoubleValue
2.415

@<SCITEGIC>MOL_PROPERTY
Valence
SciTegic.value.DoubleValue
5.578

@<SCITEGIC>MOL_PROPERTY
Coulomb
SciTegic.value.DoubleValue
21.811

@<SCITEGIC>MOL_PROPERTY
VdW
SciTegic.value.DoubleValue
0.640

@<SCITEGIC>MOL_PROPERTY
VdW6
SciTegic.value.DoubleValue
-11.461

@<SCITEGIC>MOL_PROPERTY
VdW12
SciTegic.value.DoubleValue
12.102

@<SCITEGIC>MOL_PROPERTY
Bond
SciTegic.value.DoubleValue
0.349

@<SCITEGIC>MOL_PROPERTY
Angle
SciTegic.value.DoubleValue
2.654

@<SCITEGIC>MOL_PROPERTY
Pdih
SciTegic.value.DoubleValue
2.574

@<SCITEGIC>MOL_PROPERTY
Idih
SciTegic.value.DoubleValue
0.000

@<SCITEGIC>MOL_PROPERTY
Tether
SciTegic.value.DoubleValue
0.000

@<TRIPOS>MOLECULE
guest-s15_vm2.mol2 : vm2 ligand conformer 168
          29          28           1
SMALL
USER_CHARGES
 
@<TRIPOS>ATOM
       1    C1      20.115355   18.701525   19.445130 C.3        1 MOL1        -0.2426
       2    H1      20.464676   19.684679   19.103946 H          1 MOL1         0.0959
       3    H2      20.967720   18.164781   19.879607 H          1 MOL1         0.0959
       4    H3      19.785976   18.137555   18.562880 H          1 MOL1         0.0959
       5    C2      18.957297   18.844254   20.458626 C.3        1 MOL1        -0.1410
       6    H4      18.648612   17.849685   20.809692 H          1 MOL1         0.0948
       7    H5      18.086523   19.271707   19.942105 H          1 MOL1         0.0948
       8    C3      19.304862   19.742257   21.670502 C.3        1 MOL1        -0.1435
       9    H6      19.595111   20.740152   21.314170 H          1 MOL1         0.0948
      10    H7      18.392887   19.882521   22.264246 H          1 MOL1         0.0948
      11    C4      20.429902   19.160996   22.564736 C.3        1 MOL1        -0.1435
      12    H8      21.353678   19.089087   21.976150 H          1 MOL1         0.0948
      13    H9      20.173337   18.136817   22.861209 H          1 MOL1         0.0948
      14    C5      20.724886   20.030885   23.814408 C.3        1 MOL1        -0.1435
      15    H10     21.698679   19.748046   24.237572 H          1 MOL1         0.0948
      16    H11     20.839903   21.074367   23.489904 H          1 MOL1         0.0948
      17    C6      19.640629   19.963627   24.925562 C.3        1 MOL1        -0.1500
      18    H12     18.657093   19.729839   24.500938 H          1 MOL1         0.0948
      19    H13     19.546698   20.967095   25.361201 H          1 MOL1         0.0948
      20    C7      19.959647   18.982724   26.079093 C.3        1 MOL1         0.1162
      21    H14     20.925628   19.264847   26.509034 H          1 MOL1         0.0910
      22    C8      20.051532   17.521508   25.608140 C.3        1 MOL1        -0.2491
      23    H15     20.201650   16.848544   26.461286 H          1 MOL1         0.0959
      24    H16     19.136269   17.213281   25.087629 H          1 MOL1         0.0959
      25    H17     20.902079   17.379035   24.931631 H          1 MOL1         0.0959
      26    N1      18.951889   19.108223   27.187803 N.4        1 MOL1        -0.5987
      27    H18     19.183460   18.494968   27.974540 H          1 MOL1         0.3605
      28    H19     18.012553   18.855254   26.869481 H          1 MOL1         0.3605
      29    H20     18.907151   20.064988   27.550373 H          1 MOL1         0.3605
@<TRIPOS>BOND
    1     1     2    1
    2     1     3    1
    3     1     4    1
    4     1     5    1
    5     5     6    1
    6     5     7    1
    7     5     8    1
    8     8     9    1
    9     8    10    1
   10     8    11    1
   11    11    12    1
   12    11    13    1
   13    11    14    1
   14    14    15    1
   15    14    16    1
   16    14    17    1
   17    17    18    1
   18    17    19    1
   19    17    20    1
   20    20    21    1
   21    20    22    1
   22    22    23    1
   23    22    24    1
   24    22    25    1
   25    20    26    1
   26    26    27    1
   27    26    28    1
   28    26    29    1
@<TRIPOS>SUBSTRUCTURE
       1 MOL1            1 RESIDUE      1      MOL     
@<SCITEGIC>MOL_PROPERTY
VM2 Rank
SciTegic.value.IntegerValue
168

@<SCITEGIC>MOL_PROPERTY
Conf_Id
SciTegic.value.IntegerValue
1266

@<SCITEGIC>MOL_PROPERTY
Probability
SciTegic.value.DoubleValue
0.00

@<SCITEGIC>MOL_PROPERTY
Sum Probability
SciTegic.value.DoubleValue
99.96

@<SCITEGIC>MOL_PROPERTY
Delta G
SciTegic.value.DoubleValue
4.840

@<SCITEGIC>MOL_PROPERTY
G
SciTegic.value.DoubleValue
38.542

@<SCITEGIC>MOL_PROPERTY
E
SciTegic.value.DoubleValue
0.670

@<SCITEGIC>MOL_PROPERTY
-TS
SciTegic.value.DoubleValue
37.873

@<SCITEGIC>MOL_PROPERTY
U+W
SciTegic.value.DoubleValue
-23.475

@<SCITEGIC>MOL_PROPERTY
U
SciTegic.value.DoubleValue
28.780

@<SCITEGIC>MOL_PROPERTY
W
SciTegic.value.DoubleValue
-52.255

@<SCITEGIC>MOL_PROPERTY
W(PB)
SciTegic.value.DoubleValue
-54.714

@<SCITEGIC>MOL_PROPERTY
W(SA)
SciTegic.value.DoubleValue
2.459

@<SCITEGIC>MOL_PROPERTY
Valence
SciTegic.value.DoubleValue
7.565

@<SCITEGIC>MOL_PROPERTY
Coulomb
SciTegic.value.DoubleValue
19.822

@<SCITEGIC>MOL_PROPERTY
VdW
SciTegic.value.DoubleValue
1.393

@<SCITEGIC>MOL_PROPERTY
VdW6
SciTegic.value.DoubleValue
-10.248

@<SCITEGIC>MOL_PROPERTY
VdW12
SciTegic.value.DoubleValue
11.641

@<SCITEGIC>MOL_PROPERTY
Bond
SciTegic.value.DoubleValue
0.341

@<SCITEGIC>MOL_PROPERTY
Angle
SciTegic.value.DoubleValue
2.098

@<SCITEGIC>MOL_PROPERTY
Pdih
SciTegic.value.DoubleValue
5.127

@<SCITEGIC>MOL_PROPERTY
Idih
SciTegic.value.DoubleValue
0.000

@<SCITEGIC>MOL_PROPERTY
Tether
SciTegic.value.DoubleValue
0.000

@<TRIPOS>MOLECULE
guest-s15_vm2.mol2 : vm2 ligand conformer 169
          29          28           1
SMALL
USER_CHARGES
 
@<TRIPOS>ATOM
       1    C1      19.042802   18.900938   19.536117 C.3        1 MOL1        -0.2426
       2    H1      18.134270   18.613997   20.079806 H          1 MOL1         0.0959
       3    H2      18.954147   19.956907   19.249610 H          1 MOL1         0.0959
       4    H3      19.077435   18.304952   18.614966 H          1 MOL1         0.0959
       5    C2      20.312472   18.659832   20.383755 C.3        1 MOL1        -0.1410
       6    H4      21.195921   18.839741   19.755339 H          1 MOL1         0.0948
       7    H5      20.360266   17.604351   20.686036 H          1 MOL1         0.0948
       8    C3      20.401275   19.566932   21.634857 C.3        1 MOL1        -0.1435
       9    H6      21.383945   19.413142   22.097757 H          1 MOL1         0.0948
      10    H7      20.369622   20.620490   21.325009 H          1 MOL1         0.0948
      11    C4      19.282156   19.295255   22.672787 C.3        1 MOL1        -0.1435
      12    H8      19.269104   18.230014   22.931519 H          1 MOL1         0.0948
      13    H9      18.309104   19.510532   22.212664 H          1 MOL1         0.0948
      14    C5      19.407665   20.165649   23.950591 C.3        1 MOL1        -0.1435
      15    H10     19.544655   21.210948   23.641038 H          1 MOL1         0.0948
      16    H11     18.454852   20.147479   24.494956 H          1 MOL1         0.0948
      17    C6      20.571752   19.769646   24.905412 C.3        1 MOL1        -0.1500
      18    H12     20.974429   20.687260   25.353935 H          1 MOL1         0.0948
      19    H13     21.405141   19.337599   24.339422 H          1 MOL1         0.0948
      20    C7      20.201403   18.811523   26.064594 C.3        1 MOL1         0.1162
      21    H14     21.118008   18.626206   26.633105 H          1 MOL1         0.0910
      22    C8      19.681572   17.451589   25.571502 C.3        1 MOL1        -0.2491
      23    H15     19.575576   16.754492   26.411691 H          1 MOL1         0.0959
      24    H16     18.700705   17.546731   25.090841 H          1 MOL1         0.0959
      25    H17     20.380161   17.003859   24.853868 H          1 MOL1         0.0959
      26    N1      19.234903   19.434637   27.034386 N.4        1 MOL1        -0.5987
      27    H18     19.050760   18.815100   27.828656 H          1 MOL1         0.3605
      28    H19     18.337131   19.636008   26.587458 H          1 MOL1         0.3605
      29    H20     19.596366   20.315684   27.410903 H          1 MOL1         0.3605
@<TRIPOS>BOND
    1     1     2    1
    2     1     3    1
    3     1     4    1
    4     1     5    1
    5     5     6    1
    6     5     7    1
    7     5     8    1
    8     8     9    1
    9     8    10    1
   10     8    11    1
   11    11    12    1
   12    11    13    1
   13    11    14    1
   14    14    15    1
   15    14    16    1
   16    14    17    1
   17    17    18    1
   18    17    19    1
   19    17    20    1
   20    20    21    1
   21    20    22    1
   22    22    23    1
   23    22    24    1
   24    22    25    1
   25    20    26    1
   26    26    27    1
   27    26    28    1
   28    26    29    1
@<TRIPOS>SUBSTRUCTURE
       1 MOL1            1 RESIDUE      1      MOL     
@<SCITEGIC>MOL_PROPERTY
VM2 Rank
SciTegic.value.IntegerValue
169

@<SCITEGIC>MOL_PROPERTY
Conf_Id
SciTegic.value.IntegerValue
872

@<SCITEGIC>MOL_PROPERTY
Probability
SciTegic.value.DoubleValue
0.00

@<SCITEGIC>MOL_PROPERTY
Sum Probability
SciTegic.value.DoubleValue
99.97

@<SCITEGIC>MOL_PROPERTY
Delta G
SciTegic.value.DoubleValue
4.851

@<SCITEGIC>MOL_PROPERTY
G
SciTegic.value.DoubleValue
38.554

@<SCITEGIC>MOL_PROPERTY
E
SciTegic.value.DoubleValue
0.643

@<SCITEGIC>MOL_PROPERTY
-TS
SciTegic.value.DoubleValue
37.911

@<SCITEGIC>MOL_PROPERTY
U+W
SciTegic.value.DoubleValue
-23.502

@<SCITEGIC>MOL_PROPERTY
U
SciTegic.value.DoubleValue
28.853

@<SCITEGIC>MOL_PROPERTY
W
SciTegic.value.DoubleValue
-52.354

@<SCITEGIC>MOL_PROPERTY
W(PB)
SciTegic.value.DoubleValue
-54.783

@<SCITEGIC>MOL_PROPERTY
W(SA)
SciTegic.value.DoubleValue
2.429

@<SCITEGIC>MOL_PROPERTY
Valence
SciTegic.value.DoubleValue
7.579

@<SCITEGIC>MOL_PROPERTY
Coulomb
SciTegic.value.DoubleValue
19.889

@<SCITEGIC>MOL_PROPERTY
VdW
SciTegic.value.DoubleValue
1.385

@<SCITEGIC>MOL_PROPERTY
VdW6
SciTegic.value.DoubleValue
-10.700

@<SCITEGIC>MOL_PROPERTY
VdW12
SciTegic.value.DoubleValue
12.085

@<SCITEGIC>MOL_PROPERTY
Bond
SciTegic.value.DoubleValue
0.383

@<SCITEGIC>MOL_PROPERTY
Angle
SciTegic.value.DoubleValue
2.315

@<SCITEGIC>MOL_PROPERTY
Pdih
SciTegic.value.DoubleValue
4.881

@<SCITEGIC>MOL_PROPERTY
Idih
SciTegic.value.DoubleValue
0.000

@<SCITEGIC>MOL_PROPERTY
Tether
SciTegic.value.DoubleValue
0.000

@<TRIPOS>MOLECULE
guest-s15_vm2.mol2 : vm2 ligand conformer 170
          29          28           1
SMALL
USER_CHARGES
 
@<TRIPOS>ATOM
       1    C1      21.418867   19.519865   21.383607 C.3        1 MOL1        -0.2426
       2    H1      21.441491   19.687301   22.466500 H          1 MOL1         0.0959
       3    H2      22.332481   18.974880   21.113346 H          1 MOL1         0.0959
       4    H3      21.451716   20.497732   20.886038 H          1 MOL1         0.0959
       5    C2      20.166113   18.723025   20.953947 C.3        1 MOL1        -0.1410
       6    H4      20.148697   17.743417   21.447090 H          1 MOL1         0.0948
       7    H5      20.240295   18.509685   19.878507 H          1 MOL1         0.0948
       8    C3      18.838195   19.476274   21.211090 C.3        1 MOL1        -0.1435
       9    H6      18.836810   20.393149   20.605719 H          1 MOL1         0.0948
      10    H7      18.007593   18.867641   20.828083 H          1 MOL1         0.0948
      11    C4      18.540257   19.862745   22.685093 C.3        1 MOL1        -0.1435
      12    H8      17.610980   20.448941   22.678240 H          1 MOL1         0.0948
      13    H9      19.305341   20.550691   23.063667 H          1 MOL1         0.0948
      14    C5      18.326752   18.662567   23.649109 C.3        1 MOL1        -0.1435
      15    H10     17.579722   18.948893   24.401219 H          1 MOL1         0.0948
      16    H11     17.872424   17.827840   23.098079 H          1 MOL1         0.0948
      17    C6      19.598144   18.159898   24.386896 C.3        1 MOL1        -0.1500
      18    H12     20.320125   17.771900   23.660934 H          1 MOL1         0.0948
      19    H13     19.322083   17.304231   25.017231 H          1 MOL1         0.0948
      20    C7      20.292176   19.225926   25.264770 C.3        1 MOL1         0.1162
      21    H14     20.575634   20.069118   24.628958 H          1 MOL1         0.0910
      22    C8      21.572782   18.651047   25.890110 C.3        1 MOL1        -0.2491
      23    H15     22.091292   19.413992   26.483769 H          1 MOL1         0.0959
      24    H16     21.347388   17.801576   26.547001 H          1 MOL1         0.0959
      25    H17     22.265704   18.307028   25.112075 H          1 MOL1         0.0959
      26    N1      19.382714   19.774655   26.329378 N.4        1 MOL1        -0.5987
      27    H18     19.075323   19.039728   26.971889 H          1 MOL1         0.3605
      28    H19     18.545187   20.197327   25.919723 H          1 MOL1         0.3605
      29    H20     19.850040   20.495037   26.887203 H          1 MOL1         0.3605
@<TRIPOS>BOND
    1     1     2    1
    2     1     3    1
    3     1     4    1
    4     1     5    1
    5     5     6    1
    6     5     7    1
    7     5     8    1
    8     8     9    1
    9     8    10    1
   10     8    11    1
   11    11    12    1
   12    11    13    1
   13    11    14    1
   14    14    15    1
   15    14    16    1
   16    14    17    1
   17    17    18    1
   18    17    19    1
   19    17    20    1
   20    20    21    1
   21    20    22    1
   22    22    23    1
   23    22    24    1
   24    22    25    1
   25    20    26    1
   26    26    27    1
   27    26    28    1
   28    26    29    1
@<TRIPOS>SUBSTRUCTURE
       1 MOL1            1 RESIDUE      1      MOL     
@<SCITEGIC>MOL_PROPERTY
VM2 Rank
SciTegic.value.IntegerValue
170

@<SCITEGIC>MOL_PROPERTY
Conf_Id
SciTegic.value.IntegerValue
1227

@<SCITEGIC>MOL_PROPERTY
Probability
SciTegic.value.DoubleValue
0.00

@<SCITEGIC>MOL_PROPERTY
Sum Probability
SciTegic.value.DoubleValue
99.97

@<SCITEGIC>MOL_PROPERTY
Delta G
SciTegic.value.DoubleValue
4.889

@<SCITEGIC>MOL_PROPERTY
G
SciTegic.value.DoubleValue
38.591

@<SCITEGIC>MOL_PROPERTY
E
SciTegic.value.DoubleValue
0.014

@<SCITEGIC>MOL_PROPERTY
-TS
SciTegic.value.DoubleValue
38.577

@<SCITEGIC>MOL_PROPERTY
U+W
SciTegic.value.DoubleValue
-24.131

@<SCITEGIC>MOL_PROPERTY
U
SciTegic.value.DoubleValue
28.539

@<SCITEGIC>MOL_PROPERTY
W
SciTegic.value.DoubleValue
-52.668

@<SCITEGIC>MOL_PROPERTY
W(PB)
SciTegic.value.DoubleValue
-55.025

@<SCITEGIC>MOL_PROPERTY
W(SA)
SciTegic.value.DoubleValue
2.357

@<SCITEGIC>MOL_PROPERTY
Valence
SciTegic.value.DoubleValue
7.210

@<SCITEGIC>MOL_PROPERTY
Coulomb
SciTegic.value.DoubleValue
20.792

@<SCITEGIC>MOL_PROPERTY
VdW
SciTegic.value.DoubleValue
0.537

@<SCITEGIC>MOL_PROPERTY
VdW6
SciTegic.value.DoubleValue
-12.023

@<SCITEGIC>MOL_PROPERTY
VdW12
SciTegic.value.DoubleValue
12.560

@<SCITEGIC>MOL_PROPERTY
Bond
SciTegic.value.DoubleValue
0.379

@<SCITEGIC>MOL_PROPERTY
Angle
SciTegic.value.DoubleValue
2.779

@<SCITEGIC>MOL_PROPERTY
Pdih
SciTegic.value.DoubleValue
4.052

@<SCITEGIC>MOL_PROPERTY
Idih
SciTegic.value.DoubleValue
0.000

@<SCITEGIC>MOL_PROPERTY
Tether
SciTegic.value.DoubleValue
0.000

@<TRIPOS>MOLECULE
guest-s15_vm2.mol2 : vm2 ligand conformer 171
          29          28           1
SMALL
USER_CHARGES
 
@<TRIPOS>ATOM
       1    C1      20.548586   20.443853   20.699856 C.3        1 MOL1        -0.2426
       2    H1      20.581913   21.537018   20.606859 H          1 MOL1         0.0959
       3    H2      21.315339   20.148837   21.426041 H          1 MOL1         0.0959
       4    H3      20.819794   20.016043   19.726033 H          1 MOL1         0.0959
       5    C2      19.139301   19.979784   21.133434 C.3        1 MOL1        -0.1410
       6    H4      18.407962   20.360869   20.407148 H          1 MOL1         0.0948
       7    H5      18.866499   20.433658   22.094428 H          1 MOL1         0.0948
       8    C3      18.998398   18.439922   21.208321 C.3        1 MOL1        -0.1435
       9    H6      17.949037   18.191223   21.418160 H          1 MOL1         0.0948
      10    H7      19.209278   18.020856   20.214835 H          1 MOL1         0.0948
      11    C4      19.900876   17.723271   22.248790 C.3        1 MOL1        -0.1435
      12    H8      20.962605   17.889472   22.024026 H          1 MOL1         0.0948
      13    H9      19.744712   16.643066   22.122009 H          1 MOL1         0.0948
      14    C5      19.592855   18.075621   23.727970 C.3        1 MOL1        -0.1435
      15    H10     18.533926   18.345662   23.831564 H          1 MOL1         0.0948
      16    H11     19.735240   17.165798   24.325614 H          1 MOL1         0.0948
      17    C6      20.507415   19.192355   24.302600 C.3        1 MOL1        -0.1500
      18    H12     20.438561   20.091545   23.681911 H          1 MOL1         0.0948
      19    H13     21.554315   18.867273   24.241034 H          1 MOL1         0.0948
      20    C7      20.199914   19.595928   25.763907 C.3        1 MOL1         0.1162
      21    H14     20.893622   20.398859   26.031905 H          1 MOL1         0.0910
      22    C8      20.430102   18.435883   26.748117 C.3        1 MOL1        -0.2491
      23    H15     20.340789   18.788140   27.783067 H          1 MOL1         0.0959
      24    H16     19.699542   17.630920   26.604812 H          1 MOL1         0.0959
      25    H17     21.435609   18.014474   26.625929 H          1 MOL1         0.0959
      26    N1      18.818553   20.169383   25.921006 N.4        1 MOL1        -0.5987
      27    H18     18.673479   20.973562   25.304012 H          1 MOL1         0.3605
      28    H19     18.652100   20.485334   26.880759 H          1 MOL1         0.3605
      29    H20     18.101522   19.474808   25.697522 H          1 MOL1         0.3605
@<TRIPOS>BOND
    1     1     2    1
    2     1     3    1
    3     1     4    1
    4     1     5    1
    5     5     6    1
    6     5     7    1
    7     5     8    1
    8     8     9    1
    9     8    10    1
   10     8    11    1
   11    11    12    1
   12    11    13    1
   13    11    14    1
   14    14    15    1
   15    14    16    1
   16    14    17    1
   17    17    18    1
   18    17    19    1
   19    17    20    1
   20    20    21    1
   21    20    22    1
   22    22    23    1
   23    22    24    1
   24    22    25    1
   25    20    26    1
   26    26    27    1
   27    26    28    1
   28    26    29    1
@<TRIPOS>SUBSTRUCTURE
       1 MOL1            1 RESIDUE      1      MOL     
@<SCITEGIC>MOL_PROPERTY
VM2 Rank
SciTegic.value.IntegerValue
171

@<SCITEGIC>MOL_PROPERTY
Conf_Id
SciTegic.value.IntegerValue
161

@<SCITEGIC>MOL_PROPERTY
Probability
SciTegic.value.DoubleValue
0.00

@<SCITEGIC>MOL_PROPERTY
Sum Probability
SciTegic.value.DoubleValue
99.97

@<SCITEGIC>MOL_PROPERTY
Delta G
SciTegic.value.DoubleValue
4.934

@<SCITEGIC>MOL_PROPERTY
G
SciTegic.value.DoubleValue
38.637

@<SCITEGIC>MOL_PROPERTY
E
SciTegic.value.DoubleValue
0.285

@<SCITEGIC>MOL_PROPERTY
-TS
SciTegic.value.DoubleValue
38.352

@<SCITEGIC>MOL_PROPERTY
U+W
SciTegic.value.DoubleValue
-23.860

@<SCITEGIC>MOL_PROPERTY
U
SciTegic.value.DoubleValue
28.974

@<SCITEGIC>MOL_PROPERTY
W
SciTegic.value.DoubleValue
-52.834

@<SCITEGIC>MOL_PROPERTY
W(PB)
SciTegic.value.DoubleValue
-55.217

@<SCITEGIC>MOL_PROPERTY
W(SA)
SciTegic.value.DoubleValue
2.383

@<SCITEGIC>MOL_PROPERTY
Valence
SciTegic.value.DoubleValue
7.347

@<SCITEGIC>MOL_PROPERTY
Coulomb
SciTegic.value.DoubleValue
20.625

@<SCITEGIC>MOL_PROPERTY
VdW
SciTegic.value.DoubleValue
1.002

@<SCITEGIC>MOL_PROPERTY
VdW6
SciTegic.value.DoubleValue
-11.326

@<SCITEGIC>MOL_PROPERTY
VdW12
SciTegic.value.DoubleValue
12.328

@<SCITEGIC>MOL_PROPERTY
Bond
SciTegic.value.DoubleValue
0.364

@<SCITEGIC>MOL_PROPERTY
Angle
SciTegic.value.DoubleValue
2.516

@<SCITEGIC>MOL_PROPERTY
Pdih
SciTegic.value.DoubleValue
4.467

@<SCITEGIC>MOL_PROPERTY
Idih
SciTegic.value.DoubleValue
0.000

@<SCITEGIC>MOL_PROPERTY
Tether
SciTegic.value.DoubleValue
0.000

@<TRIPOS>MOLECULE
guest-s15_vm2.mol2 : vm2 ligand conformer 172
          29          28           1
SMALL
USER_CHARGES
 
@<TRIPOS>ATOM
       1    C1      20.836066   19.627233   20.403456 C.3        1 MOL1        -0.2426
       2    H1      21.093350   18.569880   20.542992 H          1 MOL1         0.0959
       3    H2      20.163939   19.706935   19.539268 H          1 MOL1         0.0959
       4    H3      21.762167   20.163680   20.159789 H          1 MOL1         0.0959
       5    C2      20.183329   20.222109   21.671254 C.3        1 MOL1        -0.1410
       6    H4      20.049195   21.303042   21.525907 H          1 MOL1         0.0948
       7    H5      20.869563   20.114967   22.520224 H          1 MOL1         0.0948
       8    C3      18.806027   19.593891   22.004488 C.3        1 MOL1        -0.1435
       9    H6      18.364813   20.111140   22.865516 H          1 MOL1         0.0948
      10    H7      18.121348   19.791664   21.168340 H          1 MOL1         0.0948
      11    C4      18.823558   18.065538   22.269493 C.3        1 MOL1        -0.1435
      12    H8      19.106804   17.547370   21.343743 H          1 MOL1         0.0948
      13    H9      17.797257   17.736106   22.481909 H          1 MOL1         0.0948
      14    C5      19.752539   17.577234   23.413714 C.3        1 MOL1        -0.1435
      15    H10     19.712276   16.479303   23.415221 H          1 MOL1         0.0948
      16    H11     20.797594   17.824079   23.192476 H          1 MOL1         0.0948
      17    C6      19.344546   18.061822   24.832271 C.3        1 MOL1        -0.1500
      18    H12     19.703555   17.334513   25.572552 H          1 MOL1         0.0948
      19    H13     18.249336   18.044623   24.906812 H          1 MOL1         0.0948
      20    C7      19.867655   19.462125   25.230511 C.3        1 MOL1         0.1162
      21    H14     19.662450   20.160669   24.416580 H          1 MOL1         0.0910
      22    C8      21.384273   19.453660   25.495505 C.3        1 MOL1        -0.2491
      23    H15     21.640778   18.759765   26.305695 H          1 MOL1         0.0959
      24    H16     21.948574   19.158119   24.604162 H          1 MOL1         0.0959
      25    H17     21.730639   20.453755   25.783853 H          1 MOL1         0.0959
      26    N1      19.138006   19.992388   26.433308 N.4        1 MOL1        -0.5987
      27    H18     18.128983   20.049276   26.267728 H          1 MOL1         0.3605
      28    H19     19.459914   20.932102   26.682265 H          1 MOL1         0.3605
      29    H20     19.282082   19.393874   27.251117 H          1 MOL1         0.3605
@<TRIPOS>BOND
    1     1     2    1
    2     1     3    1
    3     1     4    1
    4     1     5    1
    5     5     6    1
    6     5     7    1
    7     5     8    1
    8     8     9    1
    9     8    10    1
   10     8    11    1
   11    11    12    1
   12    11    13    1
   13    11    14    1
   14    14    15    1
   15    14    16    1
   16    14    17    1
   17    17    18    1
   18    17    19    1
   19    17    20    1
   20    20    21    1
   21    20    22    1
   22    22    23    1
   23    22    24    1
   24    22    25    1
   25    20    26    1
   26    26    27    1
   27    26    28    1
   28    26    29    1
@<TRIPOS>SUBSTRUCTURE
       1 MOL1            1 RESIDUE      1      MOL     
@<SCITEGIC>MOL_PROPERTY
VM2 Rank
SciTegic.value.IntegerValue
172

@<SCITEGIC>MOL_PROPERTY
Conf_Id
SciTegic.value.IntegerValue
1373

@<SCITEGIC>MOL_PROPERTY
Probability
SciTegic.value.DoubleValue
0.00

@<SCITEGIC>MOL_PROPERTY
Sum Probability
SciTegic.value.DoubleValue
99.97

@<SCITEGIC>MOL_PROPERTY
Delta G
SciTegic.value.DoubleValue
4.993

@<SCITEGIC>MOL_PROPERTY
G
SciTegic.value.DoubleValue
38.695

@<SCITEGIC>MOL_PROPERTY
E
SciTegic.value.DoubleValue
-0.131

@<SCITEGIC>MOL_PROPERTY
-TS
SciTegic.value.DoubleValue
38.827

@<SCITEGIC>MOL_PROPERTY
U+W
SciTegic.value.DoubleValue
-24.276

@<SCITEGIC>MOL_PROPERTY
U
SciTegic.value.DoubleValue
28.750

@<SCITEGIC>MOL_PROPERTY
W
SciTegic.value.DoubleValue
-53.026

@<SCITEGIC>MOL_PROPERTY
W(PB)
SciTegic.value.DoubleValue
-55.392

@<SCITEGIC>MOL_PROPERTY
W(SA)
SciTegic.value.DoubleValue
2.366

@<SCITEGIC>MOL_PROPERTY
Valence
SciTegic.value.DoubleValue
7.379

@<SCITEGIC>MOL_PROPERTY
Coulomb
SciTegic.value.DoubleValue
20.861

@<SCITEGIC>MOL_PROPERTY
VdW
SciTegic.value.DoubleValue
0.509

@<SCITEGIC>MOL_PROPERTY
VdW6
SciTegic.value.DoubleValue
-12.367

@<SCITEGIC>MOL_PROPERTY
VdW12
SciTegic.value.DoubleValue
12.876

@<SCITEGIC>MOL_PROPERTY
Bond
SciTegic.value.DoubleValue
0.367

@<SCITEGIC>MOL_PROPERTY
Angle
SciTegic.value.DoubleValue
2.928

@<SCITEGIC>MOL_PROPERTY
Pdih
SciTegic.value.DoubleValue
4.085

@<SCITEGIC>MOL_PROPERTY
Idih
SciTegic.value.DoubleValue
0.000

@<SCITEGIC>MOL_PROPERTY
Tether
SciTegic.value.DoubleValue
0.000

@<TRIPOS>MOLECULE
guest-s15_vm2.mol2 : vm2 ligand conformer 173
          29          28           1
SMALL
USER_CHARGES
 
@<TRIPOS>ATOM
       1    C1      19.494326   19.516434   19.142179 C.3        1 MOL1        -0.2426
       2    H1      18.756569   18.763077   18.836576 H          1 MOL1         0.0959
       3    H2      19.002771   20.498066   19.137880 H          1 MOL1         0.0959
       4    H3      20.290064   19.534490   18.386194 H          1 MOL1         0.0959
       5    C2      20.073868   19.193076   20.535622 C.3        1 MOL1        -0.1410
       6    H4      20.835856   19.942714   20.785269 H          1 MOL1         0.0948
       7    H5      20.583321   18.219998   20.500673 H          1 MOL1         0.0948
       8    C3      18.969520   19.166013   21.619012 C.3        1 MOL1        -0.1435
       9    H6      18.495515   20.154538   21.692143 H          1 MOL1         0.0948
      10    H7      18.181067   18.469691   21.301434 H          1 MOL1         0.0948
      11    C4      19.475191   18.725446   23.014999 C.3        1 MOL1        -0.1435
      12    H8      19.981903   17.754024   22.933287 H          1 MOL1         0.0948
      13    H9      18.595049   18.570663   23.649646 H          1 MOL1         0.0948
      14    C5      20.414695   19.757069   23.687499 C.3        1 MOL1        -0.1435
      15    H10     21.239677   19.992582   23.003847 H          1 MOL1         0.0948
      16    H11     19.876387   20.702399   23.837514 H          1 MOL1         0.0948
      17    C6      21.051238   19.288173   25.027081 C.3        1 MOL1        -0.1500
      18    H12     21.727647   20.085533   25.361701 H          1 MOL1         0.0948
      19    H13     21.699142   18.421132   24.842436 H          1 MOL1         0.0948
      20    C7      20.093268   18.978168   26.206668 C.3        1 MOL1         0.1162
      21    H14     20.667585   19.135230   27.124938 H          1 MOL1         0.0910
      22    C8      19.637004   17.507446   26.229775 C.3        1 MOL1        -0.2491
      23    H15     20.502318   16.833180   26.232625 H          1 MOL1         0.0959
      24    H16     19.058735   17.302001   27.138928 H          1 MOL1         0.0959
      25    H17     19.009604   17.248508   25.371948 H          1 MOL1         0.0959
      26    N1      18.926891   19.924176   26.291164 N.4        1 MOL1        -0.5987
      27    H18     19.240232   20.896164   26.366714 H          1 MOL1         0.3605
      28    H19     18.340994   19.725798   27.107265 H          1 MOL1         0.3605
      29    H20     18.336009   19.854621   25.458999 H          1 MOL1         0.3605
@<TRIPOS>BOND
    1     1     2    1
    2     1     3    1
    3     1     4    1
    4     1     5    1
    5     5     6    1
    6     5     7    1
    7     5     8    1
    8     8     9    1
    9     8    10    1
   10     8    11    1
   11    11    12    1
   12    11    13    1
   13    11    14    1
   14    14    15    1
   15    14    16    1
   16    14    17    1
   17    17    18    1
   18    17    19    1
   19    17    20    1
   20    20    21    1
   21    20    22    1
   22    22    23    1
   23    22    24    1
   24    22    25    1
   25    20    26    1
   26    26    27    1
   27    26    28    1
   28    26    29    1
@<TRIPOS>SUBSTRUCTURE
       1 MOL1            1 RESIDUE      1      MOL     
@<SCITEGIC>MOL_PROPERTY
VM2 Rank
SciTegic.value.IntegerValue
173

@<SCITEGIC>MOL_PROPERTY
Conf_Id
SciTegic.value.IntegerValue
1272

@<SCITEGIC>MOL_PROPERTY
Probability
SciTegic.value.DoubleValue
0.00

@<SCITEGIC>MOL_PROPERTY
Sum Probability
SciTegic.value.DoubleValue
99.98

@<SCITEGIC>MOL_PROPERTY
Delta G
SciTegic.value.DoubleValue
5.030

@<SCITEGIC>MOL_PROPERTY
G
SciTegic.value.DoubleValue
38.732

@<SCITEGIC>MOL_PROPERTY
E
SciTegic.value.DoubleValue
0.813

@<SCITEGIC>MOL_PROPERTY
-TS
SciTegic.value.DoubleValue
37.919

@<SCITEGIC>MOL_PROPERTY
U+W
SciTegic.value.DoubleValue
-23.332

@<SCITEGIC>MOL_PROPERTY
U
SciTegic.value.DoubleValue
28.836

@<SCITEGIC>MOL_PROPERTY
W
SciTegic.value.DoubleValue
-52.167

@<SCITEGIC>MOL_PROPERTY
W(PB)
SciTegic.value.DoubleValue
-54.632

@<SCITEGIC>MOL_PROPERTY
W(SA)
SciTegic.value.DoubleValue
2.465

@<SCITEGIC>MOL_PROPERTY
Valence
SciTegic.value.DoubleValue
6.993

@<SCITEGIC>MOL_PROPERTY
Coulomb
SciTegic.value.DoubleValue
20.553

@<SCITEGIC>MOL_PROPERTY
VdW
SciTegic.value.DoubleValue
1.290

@<SCITEGIC>MOL_PROPERTY
VdW6
SciTegic.value.DoubleValue
-10.457

@<SCITEGIC>MOL_PROPERTY
VdW12
SciTegic.value.DoubleValue
11.747

@<SCITEGIC>MOL_PROPERTY
Bond
SciTegic.value.DoubleValue
0.348

@<SCITEGIC>MOL_PROPERTY
Angle
SciTegic.value.DoubleValue
2.718

@<SCITEGIC>MOL_PROPERTY
Pdih
SciTegic.value.DoubleValue
3.927

@<SCITEGIC>MOL_PROPERTY
Idih
SciTegic.value.DoubleValue
0.000

@<SCITEGIC>MOL_PROPERTY
Tether
SciTegic.value.DoubleValue
0.000

@<TRIPOS>MOLECULE
guest-s15_vm2.mol2 : vm2 ligand conformer 174
          29          28           1
SMALL
USER_CHARGES
 
@<TRIPOS>ATOM
       1    C1      19.648310   20.468833   19.892071 C.3        1 MOL1        -0.2426
       2    H1      18.641666   20.365454   19.466427 H          1 MOL1         0.0959
       3    H2      19.701390   21.432632   20.415004 H          1 MOL1         0.0959
       4    H3      20.364374   20.496538   19.060520 H          1 MOL1         0.0959
       5    C2      19.969244   19.300924   20.848496 C.3        1 MOL1        -0.1410
       6    H4      20.995122   19.418100   21.222239 H          1 MOL1         0.0948
       7    H5      19.938623   18.354241   20.291330 H          1 MOL1         0.0948
       8    C3      18.974670   19.243413   22.031375 C.3        1 MOL1        -0.1435
       9    H6      19.035251   20.176727   22.604132 H          1 MOL1         0.0948
      10    H7      17.951658   19.197531   21.633126 H          1 MOL1         0.0948
      11    C4      19.191898   18.021621   22.961745 C.3        1 MOL1        -0.1435
      12    H8      19.056592   17.105383   22.370576 H          1 MOL1         0.0948
      13    H9      18.399641   17.991698   23.719297 H          1 MOL1         0.0948
      14    C5      20.579138   17.954144   23.654308 C.3        1 MOL1        -0.1435
      15    H10     20.623823   17.044745   24.267837 H          1 MOL1         0.0948
      16    H11     21.349915   17.809861   22.885917 H          1 MOL1         0.0948
      17    C6      20.978485   19.184148   24.521020 C.3        1 MOL1        -0.1500
      18    H12     21.039354   20.080097   23.890630 H          1 MOL1         0.0948
      19    H13     22.003288   19.016801   24.877588 H          1 MOL1         0.0948
      20    C7      20.103369   19.492172   25.763388 C.3        1 MOL1         0.1162
      21    H14     20.642585   20.240206   26.352743 H          1 MOL1         0.0910
      22    C8      19.903682   18.259385   26.661892 C.3        1 MOL1        -0.2491
      23    H15     19.278951   17.500947   26.175120 H          1 MOL1         0.0959
      24    H16     20.868203   17.801823   26.914632 H          1 MOL1         0.0959
      25    H17     19.414092   18.544243   27.601174 H          1 MOL1         0.0959
      26    N1      18.787203   20.131361   25.419705 N.4        1 MOL1        -0.5987
      27    H18     18.243262   20.341734   26.261526 H          1 MOL1         0.3605
      28    H19     18.223042   19.516038   24.829447 H          1 MOL1         0.3605
      29    H20     18.920454   21.011024   24.913124 H          1 MOL1         0.3605
@<TRIPOS>BOND
    1     1     2    1
    2     1     3    1
    3     1     4    1
    4     1     5    1
    5     5     6    1
    6     5     7    1
    7     5     8    1
    8     8     9    1
    9     8    10    1
   10     8    11    1
   11    11    12    1
   12    11    13    1
   13    11    14    1
   14    14    15    1
   15    14    16    1
   16    14    17    1
   17    17    18    1
   18    17    19    1
   19    17    20    1
   20    20    21    1
   21    20    22    1
   22    22    23    1
   23    22    24    1
   24    22    25    1
   25    20    26    1
   26    26    27    1
   27    26    28    1
   28    26    29    1
@<TRIPOS>SUBSTRUCTURE
       1 MOL1            1 RESIDUE      1      MOL     
@<SCITEGIC>MOL_PROPERTY
VM2 Rank
SciTegic.value.IntegerValue
174

@<SCITEGIC>MOL_PROPERTY
Conf_Id
SciTegic.value.IntegerValue
315

@<SCITEGIC>MOL_PROPERTY
Probability
SciTegic.value.DoubleValue
0.00

@<SCITEGIC>MOL_PROPERTY
Sum Probability
SciTegic.value.DoubleValue
99.98

@<SCITEGIC>MOL_PROPERTY
Delta G
SciTegic.value.DoubleValue
5.044

@<SCITEGIC>MOL_PROPERTY
G
SciTegic.value.DoubleValue
38.747

@<SCITEGIC>MOL_PROPERTY
E
SciTegic.value.DoubleValue
0.098

@<SCITEGIC>MOL_PROPERTY
-TS
SciTegic.value.DoubleValue
38.649

@<SCITEGIC>MOL_PROPERTY
U+W
SciTegic.value.DoubleValue
-24.047

@<SCITEGIC>MOL_PROPERTY
U
SciTegic.value.DoubleValue
28.518

@<SCITEGIC>MOL_PROPERTY
W
SciTegic.value.DoubleValue
-52.565

@<SCITEGIC>MOL_PROPERTY
W(PB)
SciTegic.value.DoubleValue
-54.941

@<SCITEGIC>MOL_PROPERTY
W(SA)
SciTegic.value.DoubleValue
2.376

@<SCITEGIC>MOL_PROPERTY
Valence
SciTegic.value.DoubleValue
6.049

@<SCITEGIC>MOL_PROPERTY
Coulomb
SciTegic.value.DoubleValue
21.789

@<SCITEGIC>MOL_PROPERTY
VdW
SciTegic.value.DoubleValue
0.681

@<SCITEGIC>MOL_PROPERTY
VdW6
SciTegic.value.DoubleValue
-12.165

@<SCITEGIC>MOL_PROPERTY
VdW12
SciTegic.value.DoubleValue
12.846

@<SCITEGIC>MOL_PROPERTY
Bond
SciTegic.value.DoubleValue
0.399

@<SCITEGIC>MOL_PROPERTY
Angle
SciTegic.value.DoubleValue
2.965

@<SCITEGIC>MOL_PROPERTY
Pdih
SciTegic.value.DoubleValue
2.686

@<SCITEGIC>MOL_PROPERTY
Idih
SciTegic.value.DoubleValue
0.000

@<SCITEGIC>MOL_PROPERTY
Tether
SciTegic.value.DoubleValue
0.000

@<TRIPOS>MOLECULE
guest-s15_vm2.mol2 : vm2 ligand conformer 175
          29          28           1
SMALL
USER_CHARGES
 
@<TRIPOS>ATOM
       1    C1      18.316018   19.922257   20.877065 C.3        1 MOL1        -0.2426
       2    H1      18.368588   20.736408   21.611350 H          1 MOL1         0.0959
       3    H2      17.643747   20.240498   20.069840 H          1 MOL1         0.0959
       4    H3      17.860780   19.046866   21.356230 H          1 MOL1         0.0959
       5    C2      19.714717   19.588847   20.314089 C.3        1 MOL1        -0.1410
       6    H4      20.058334   20.434400   19.701988 H          1 MOL1         0.0948
       7    H5      19.638692   18.730622   19.631933 H          1 MOL1         0.0948
       8    C3      20.784639   19.299861   21.397565 C.3        1 MOL1        -0.1435
       9    H6      21.740607   19.136438   20.881243 H          1 MOL1         0.0948
      10    H7      20.934013   20.192655   22.017001 H          1 MOL1         0.0948
      11    C4      20.493866   18.052642   22.276560 C.3        1 MOL1        -0.1435
      12    H8      21.442975   17.548019   22.503970 H          1 MOL1         0.0948
      13    H9      19.908851   17.327077   21.694909 H          1 MOL1         0.0948
      14    C5      19.766141   18.349963   23.613480 C.3        1 MOL1        -0.1435
      15    H10     18.874460   18.958970   23.429285 H          1 MOL1         0.0948
      16    H11     19.408787   17.395527   24.021139 H          1 MOL1         0.0948
      17    C6      20.679644   19.042144   24.662541 C.3        1 MOL1        -0.1500
      18    H12     21.078081   19.977163   24.251480 H          1 MOL1         0.0948
      19    H13     21.552097   18.405086   24.858699 H          1 MOL1         0.0948
      20    C7      19.991200   19.367962   26.009073 C.3        1 MOL1         0.1162
      21    H14     20.730537   19.874420   26.637271 H          1 MOL1         0.0910
      22    C8      19.540827   18.099085   26.753746 C.3        1 MOL1        -0.2491
      23    H15     18.723366   17.589411   26.230174 H          1 MOL1         0.0959
      24    H16     20.374040   17.393558   26.861239 H          1 MOL1         0.0959
      25    H17     19.186873   18.351349   27.760854 H          1 MOL1         0.0959
      26    N1      18.848947   20.333239   25.849882 N.4        1 MOL1        -0.5987
      27    H18     18.100033   19.930630   25.281138 H          1 MOL1         0.3605
      28    H19     19.150843   21.199872   25.395542 H          1 MOL1         0.3605
      29    H20     18.444903   20.586806   26.756049 H          1 MOL1         0.3605
@<TRIPOS>BOND
    1     1     2    1
    2     1     3    1
    3     1     4    1
    4     1     5    1
    5     5     6    1
    6     5     7    1
    7     5     8    1
    8     8     9    1
    9     8    10    1
   10     8    11    1
   11    11    12    1
   12    11    13    1
   13    11    14    1
   14    14    15    1
   15    14    16    1
   16    14    17    1
   17    17    18    1
   18    17    19    1
   19    17    20    1
   20    20    21    1
   21    20    22    1
   22    22    23    1
   23    22    24    1
   24    22    25    1
   25    20    26    1
   26    26    27    1
   27    26    28    1
   28    26    29    1
@<TRIPOS>SUBSTRUCTURE
       1 MOL1            1 RESIDUE      1      MOL     
@<SCITEGIC>MOL_PROPERTY
VM2 Rank
SciTegic.value.IntegerValue
175

@<SCITEGIC>MOL_PROPERTY
Conf_Id
SciTegic.value.IntegerValue
1689

@<SCITEGIC>MOL_PROPERTY
Probability
SciTegic.value.DoubleValue
0.00

@<SCITEGIC>MOL_PROPERTY
Sum Probability
SciTegic.value.DoubleValue
99.98

@<SCITEGIC>MOL_PROPERTY
Delta G
SciTegic.value.DoubleValue
5.072

@<SCITEGIC>MOL_PROPERTY
G
SciTegic.value.DoubleValue
38.774

@<SCITEGIC>MOL_PROPERTY
E
SciTegic.value.DoubleValue
0.830

@<SCITEGIC>MOL_PROPERTY
-TS
SciTegic.value.DoubleValue
37.944

@<SCITEGIC>MOL_PROPERTY
U+W
SciTegic.value.DoubleValue
-23.314

@<SCITEGIC>MOL_PROPERTY
U
SciTegic.value.DoubleValue
29.307

@<SCITEGIC>MOL_PROPERTY
W
SciTegic.value.DoubleValue
-52.622

@<SCITEGIC>MOL_PROPERTY
W(PB)
SciTegic.value.DoubleValue
-55.035

@<SCITEGIC>MOL_PROPERTY
W(SA)
SciTegic.value.DoubleValue
2.414

@<SCITEGIC>MOL_PROPERTY
Valence
SciTegic.value.DoubleValue
7.440

@<SCITEGIC>MOL_PROPERTY
Coulomb
SciTegic.value.DoubleValue
20.545

@<SCITEGIC>MOL_PROPERTY
VdW
SciTegic.value.DoubleValue
1.323

@<SCITEGIC>MOL_PROPERTY
VdW6
SciTegic.value.DoubleValue
-10.805

@<SCITEGIC>MOL_PROPERTY
VdW12
SciTegic.value.DoubleValue
12.127

@<SCITEGIC>MOL_PROPERTY
Bond
SciTegic.value.DoubleValue
0.373

@<SCITEGIC>MOL_PROPERTY
Angle
SciTegic.value.DoubleValue
2.227

@<SCITEGIC>MOL_PROPERTY
Pdih
SciTegic.value.DoubleValue
4.841

@<SCITEGIC>MOL_PROPERTY
Idih
SciTegic.value.DoubleValue
0.000

@<SCITEGIC>MOL_PROPERTY
Tether
SciTegic.value.DoubleValue
0.000

@<TRIPOS>MOLECULE
guest-s15_vm2.mol2 : vm2 ligand conformer 176
          29          28           1
SMALL
USER_CHARGES
 
@<TRIPOS>ATOM
       1    C1      18.628660   19.172393   20.406394 C.3        1 MOL1        -0.2426
       2    H1      17.914689   19.577957   21.134736 H          1 MOL1         0.0959
       3    H2      18.219491   19.344525   19.402500 H          1 MOL1         0.0959
       4    H3      18.696127   18.087395   20.543605 H          1 MOL1         0.0959
       5    C2      20.012732   19.842276   20.543698 C.3        1 MOL1        -0.1410
       6    H4      19.946119   20.858863   20.131542 H          1 MOL1         0.0948
       7    H5      20.742540   19.309754   19.918144 H          1 MOL1         0.0948
       8    C3      20.542557   19.947261   21.996805 C.3        1 MOL1        -0.1435
       9    H6      21.467684   20.538728   21.957617 H          1 MOL1         0.0948
      10    H7      19.851529   20.540487   22.607463 H          1 MOL1         0.0948
      11    C4      20.884811   18.596798   22.685649 C.3        1 MOL1        -0.1435
      12    H8      21.662930   18.785466   23.437221 H          1 MOL1         0.0948
      13    H9      21.351190   17.924320   21.952839 H          1 MOL1         0.0948
      14    C5      19.708608   17.857053   23.382954 C.3        1 MOL1        -0.1435
      15    H10     18.993551   17.495528   22.636734 H          1 MOL1         0.0948
      16    H11     20.104123   16.948702   23.856621 H          1 MOL1         0.0948
      17    C6      18.938955   18.686887   24.445568 C.3        1 MOL1        -0.1500
      18    H12     18.202652   18.038042   24.937987 H          1 MOL1         0.0948
      19    H13     18.353856   19.461392   23.934270 H          1 MOL1         0.0948
      20    C7      19.828658   19.354578   25.519647 C.3        1 MOL1         0.1162
      21    H14     20.574246   19.974142   25.012430 H          1 MOL1         0.0910
      22    C8      20.563408   18.315114   26.384618 C.3        1 MOL1        -0.2491
      23    H15     21.245556   17.705391   25.780852 H          1 MOL1         0.0959
      24    H16     21.165206   18.810457   27.156440 H          1 MOL1         0.0959
      25    H17     19.854543   17.643335   26.884454 H          1 MOL1         0.0959
      26    N1      19.027611   20.283640   26.388667 N.4        1 MOL1        -0.5987
      27    H18     19.620652   20.755949   27.077054 H          1 MOL1         0.3605
      28    H19     18.302474   19.779057   26.905659 H          1 MOL1         0.3605
      29    H20     18.563079   21.010315   25.836559 H          1 MOL1         0.3605
@<TRIPOS>BOND
    1     1     2    1
    2     1     3    1
    3     1     4    1
    4     1     5    1
    5     5     6    1
    6     5     7    1
    7     5     8    1
    8     8     9    1
    9     8    10    1
   10     8    11    1
   11    11    12    1
   12    11    13    1
   13    11    14    1
   14    14    15    1
   15    14    16    1
   16    14    17    1
   17    17    18    1
   18    17    19    1
   19    17    20    1
   20    20    21    1
   21    20    22    1
   22    22    23    1
   23    22    24    1
   24    22    25    1
   25    20    26    1
   26    26    27    1
   27    26    28    1
   28    26    29    1
@<TRIPOS>SUBSTRUCTURE
       1 MOL1            1 RESIDUE      1      MOL     
@<SCITEGIC>MOL_PROPERTY
VM2 Rank
SciTegic.value.IntegerValue
176

@<SCITEGIC>MOL_PROPERTY
Conf_Id
SciTegic.value.IntegerValue
688

@<SCITEGIC>MOL_PROPERTY
Probability
SciTegic.value.DoubleValue
0.00

@<SCITEGIC>MOL_PROPERTY
Sum Probability
SciTegic.value.DoubleValue
99.98

@<SCITEGIC>MOL_PROPERTY
Delta G
SciTegic.value.DoubleValue
5.081

@<SCITEGIC>MOL_PROPERTY
G
SciTegic.value.DoubleValue
38.783

@<SCITEGIC>MOL_PROPERTY
E
SciTegic.value.DoubleValue
0.525

@<SCITEGIC>MOL_PROPERTY
-TS
SciTegic.value.DoubleValue
38.258

@<SCITEGIC>MOL_PROPERTY
U+W
SciTegic.value.DoubleValue
-23.619

@<SCITEGIC>MOL_PROPERTY
U
SciTegic.value.DoubleValue
29.287

@<SCITEGIC>MOL_PROPERTY
W
SciTegic.value.DoubleValue
-52.906

@<SCITEGIC>MOL_PROPERTY
W(PB)
SciTegic.value.DoubleValue
-55.269

@<SCITEGIC>MOL_PROPERTY
W(SA)
SciTegic.value.DoubleValue
2.363

@<SCITEGIC>MOL_PROPERTY
Valence
SciTegic.value.DoubleValue
7.713

@<SCITEGIC>MOL_PROPERTY
Coulomb
SciTegic.value.DoubleValue
20.704

@<SCITEGIC>MOL_PROPERTY
VdW
SciTegic.value.DoubleValue
0.871

@<SCITEGIC>MOL_PROPERTY
VdW6
SciTegic.value.DoubleValue
-11.817

@<SCITEGIC>MOL_PROPERTY
VdW12
SciTegic.value.DoubleValue
12.687

@<SCITEGIC>MOL_PROPERTY
Bond
SciTegic.value.DoubleValue
0.400

@<SCITEGIC>MOL_PROPERTY
Angle
SciTegic.value.DoubleValue
3.243

@<SCITEGIC>MOL_PROPERTY
Pdih
SciTegic.value.DoubleValue
4.070

@<SCITEGIC>MOL_PROPERTY
Idih
SciTegic.value.DoubleValue
0.000

@<SCITEGIC>MOL_PROPERTY
Tether
SciTegic.value.DoubleValue
0.000

@<TRIPOS>MOLECULE
guest-s15_vm2.mol2 : vm2 ligand conformer 177
          29          28           1
SMALL
USER_CHARGES
 
@<TRIPOS>ATOM
       1    C1      20.303336   19.010457   19.900107 C.3        1 MOL1        -0.2426
       2    H1      21.172777   18.787106   19.268419 H          1 MOL1         0.0959
       3    H2      19.774594   18.065865   20.078558 H          1 MOL1         0.0959
       4    H3      19.639159   19.676814   19.334611 H          1 MOL1         0.0959
       5    C2      20.751894   19.666211   21.225422 C.3        1 MOL1        -0.1410
       6    H4      21.389203   20.530422   20.991734 H          1 MOL1         0.0948
       7    H5      21.389209   18.968174   21.782393 H          1 MOL1         0.0948
       8    C3      19.572470   20.152116   22.107714 C.3        1 MOL1        -0.1435
       9    H6      19.976701   20.652277   22.994732 H          1 MOL1         0.0948
      10    H7      19.029050   20.932019   21.556814 H          1 MOL1         0.0948
      11    C4      18.553701   19.056209   22.526905 C.3        1 MOL1        -0.1435
      12    H8      18.116262   18.622066   21.618488 H          1 MOL1         0.0948
      13    H9      17.710502   19.529252   23.048478 H          1 MOL1         0.0948
      14    C5      19.116829   17.904276   23.404213 C.3        1 MOL1        -0.1435
      15    H10     18.516292   17.007732   23.197618 H          1 MOL1         0.0948
      16    H11     20.136236   17.635923   23.104222 H          1 MOL1         0.0948
      17    C6      19.039320   18.158444   24.934322 C.3        1 MOL1        -0.1500
      18    H12     19.353776   17.246971   25.459787 H          1 MOL1         0.0948
      19    H13     17.986124   18.311536   25.204227 H          1 MOL1         0.0948
      20    C7      19.863960   19.351984   25.466028 C.3        1 MOL1         0.1162
      21    H14     19.561625   20.250781   24.922923 H          1 MOL1         0.0910
      22    C8      21.375924   19.138035   25.275473 C.3        1 MOL1        -0.2491
      23    H15     21.940376   19.987732   25.678724 H          1 MOL1         0.0959
      24    H16     21.714966   18.229723   25.788900 H          1 MOL1         0.0959
      25    H17     21.636238   19.047509   24.215607 H          1 MOL1         0.0959
      26    N1      19.558566   19.618267   26.913817 N.4        1 MOL1        -0.5987
      27    H18     20.075043   20.431199   27.261714 H          1 MOL1         0.3605
      28    H19     19.812989   18.820320   27.502244 H          1 MOL1         0.3605
      29    H20     18.562280   19.804109   27.061165 H          1 MOL1         0.3605
@<TRIPOS>BOND
    1     1     2    1
    2     1     3    1
    3     1     4    1
    4     1     5    1
    5     5     6    1
    6     5     7    1
    7     5     8    1
    8     8     9    1
    9     8    10    1
   10     8    11    1
   11    11    12    1
   12    11    13    1
   13    11    14    1
   14    14    15    1
   15    14    16    1
   16    14    17    1
   17    17    18    1
   18    17    19    1
   19    17    20    1
   20    20    21    1
   21    20    22    1
   22    22    23    1
   23    22    24    1
   24    22    25    1
   25    20    26    1
   26    26    27    1
   27    26    28    1
   28    26    29    1
@<TRIPOS>SUBSTRUCTURE
       1 MOL1            1 RESIDUE      1      MOL     
@<SCITEGIC>MOL_PROPERTY
VM2 Rank
SciTegic.value.IntegerValue
177

@<SCITEGIC>MOL_PROPERTY
Conf_Id
SciTegic.value.IntegerValue
1331

@<SCITEGIC>MOL_PROPERTY
Probability
SciTegic.value.DoubleValue
0.00

@<SCITEGIC>MOL_PROPERTY
Sum Probability
SciTegic.value.DoubleValue
99.98

@<SCITEGIC>MOL_PROPERTY
Delta G
SciTegic.value.DoubleValue
5.153

@<SCITEGIC>MOL_PROPERTY
G
SciTegic.value.DoubleValue
38.855

@<SCITEGIC>MOL_PROPERTY
E
SciTegic.value.DoubleValue
0.195

@<SCITEGIC>MOL_PROPERTY
-TS
SciTegic.value.DoubleValue
38.661

@<SCITEGIC>MOL_PROPERTY
U+W
SciTegic.value.DoubleValue
-23.950

@<SCITEGIC>MOL_PROPERTY
U
SciTegic.value.DoubleValue
28.821

@<SCITEGIC>MOL_PROPERTY
W
SciTegic.value.DoubleValue
-52.771

@<SCITEGIC>MOL_PROPERTY
W(PB)
SciTegic.value.DoubleValue
-55.141

@<SCITEGIC>MOL_PROPERTY
W(SA)
SciTegic.value.DoubleValue
2.370

@<SCITEGIC>MOL_PROPERTY
Valence
SciTegic.value.DoubleValue
7.656

@<SCITEGIC>MOL_PROPERTY
Coulomb
SciTegic.value.DoubleValue
20.424

@<SCITEGIC>MOL_PROPERTY
VdW
SciTegic.value.DoubleValue
0.741

@<SCITEGIC>MOL_PROPERTY
VdW6
SciTegic.value.DoubleValue
-11.945

@<SCITEGIC>MOL_PROPERTY
VdW12
SciTegic.value.DoubleValue
12.686

@<SCITEGIC>MOL_PROPERTY
Bond
SciTegic.value.DoubleValue
0.394

@<SCITEGIC>MOL_PROPERTY
Angle
SciTegic.value.DoubleValue
3.129

@<SCITEGIC>MOL_PROPERTY
Pdih
SciTegic.value.DoubleValue
4.133

@<SCITEGIC>MOL_PROPERTY
Idih
SciTegic.value.DoubleValue
0.000

@<SCITEGIC>MOL_PROPERTY
Tether
SciTegic.value.DoubleValue
0.000

@<TRIPOS>MOLECULE
guest-s15_vm2.mol2 : vm2 ligand conformer 178
          29          28           1
SMALL
USER_CHARGES
 
@<TRIPOS>ATOM
       1    C1      20.673938   18.724712   19.778203 C.3        1 MOL1        -0.2426
       2    H1      20.018854   17.999258   19.278430 H          1 MOL1         0.0959
       3    H2      21.061080   19.411218   19.014116 H          1 MOL1         0.0959
       4    H3      21.526041   18.179377   20.204491 H          1 MOL1         0.0959
       5    C2      19.910092   19.501285   20.871455 C.3        1 MOL1        -0.1410
       6    H4      19.083072   20.060114   20.411766 H          1 MOL1         0.0948
       7    H5      20.585238   20.242092   21.320006 H          1 MOL1         0.0948
       8    C3      19.357810   18.554399   21.962444 C.3        1 MOL1        -0.1435
       9    H6      18.741984   17.780598   21.483868 H          1 MOL1         0.0948
      10    H7      20.189147   18.024025   22.443023 H          1 MOL1         0.0948
      11    C4      18.492985   19.275890   23.028530 C.3        1 MOL1        -0.1435
      12    H8      18.067806   18.535751   23.716450 H          1 MOL1         0.0948
      13    H9      17.627548   19.729601   22.526205 H          1 MOL1         0.0948
      14    C5      19.222517   20.380980   23.836410 C.3        1 MOL1        -0.1435
      15    H10     19.476852   21.201141   23.152160 H          1 MOL1         0.0948
      16    H11     18.514764   20.823996   24.549257 H          1 MOL1         0.0948
      17    C6      20.520153   19.957059   24.586095 C.3        1 MOL1        -0.1500
      18    H12     20.959113   20.871158   25.006619 H          1 MOL1         0.0948
      19    H13     21.268115   19.588984   23.872580 H          1 MOL1         0.0948
      20    C7      20.372718   18.951874   25.758503 C.3        1 MOL1         0.1162
      21    H14     21.246707   19.094996   26.401424 H          1 MOL1         0.0910
      22    C8      20.407740   17.482309   25.303108 C.3        1 MOL1        -0.2491
      23    H15     21.293754   17.285901   24.686992 H          1 MOL1         0.0959
      24    H16     20.459231   16.816407   26.173179 H          1 MOL1         0.0959
      25    H17     19.520340   17.203549   24.727464 H          1 MOL1         0.0959
      26    N1      19.178046   19.227491   26.629250 N.4        1 MOL1        -0.5987
      27    H18     19.140673   18.588093   27.428179 H          1 MOL1         0.3605
      28    H19     18.307539   19.118131   26.103090 H          1 MOL1         0.3605
      29    H20     19.197893   20.181960   26.999558 H          1 MOL1         0.3605
@<TRIPOS>BOND
    1     1     2    1
    2     1     3    1
    3     1     4    1
    4     1     5    1
    5     5     6    1
    6     5     7    1
    7     5     8    1
    8     8     9    1
    9     8    10    1
   10     8    11    1
   11    11    12    1
   12    11    13    1
   13    11    14    1
   14    14    15    1
   15    14    16    1
   16    14    17    1
   17    17    18    1
   18    17    19    1
   19    17    20    1
   20    20    21    1
   21    20    22    1
   22    22    23    1
   23    22    24    1
   24    22    25    1
   25    20    26    1
   26    26    27    1
   27    26    28    1
   28    26    29    1
@<TRIPOS>SUBSTRUCTURE
       1 MOL1            1 RESIDUE      1      MOL     
@<SCITEGIC>MOL_PROPERTY
VM2 Rank
SciTegic.value.IntegerValue
178

@<SCITEGIC>MOL_PROPERTY
Conf_Id
SciTegic.value.IntegerValue
684

@<SCITEGIC>MOL_PROPERTY
Probability
SciTegic.value.DoubleValue
0.00

@<SCITEGIC>MOL_PROPERTY
Sum Probability
SciTegic.value.DoubleValue
99.99

@<SCITEGIC>MOL_PROPERTY
Delta G
SciTegic.value.DoubleValue
5.237

@<SCITEGIC>MOL_PROPERTY
G
SciTegic.value.DoubleValue
38.939

@<SCITEGIC>MOL_PROPERTY
E
SciTegic.value.DoubleValue
0.260

@<SCITEGIC>MOL_PROPERTY
-TS
SciTegic.value.DoubleValue
38.679

@<SCITEGIC>MOL_PROPERTY
U+W
SciTegic.value.DoubleValue
-23.885

@<SCITEGIC>MOL_PROPERTY
U
SciTegic.value.DoubleValue
28.683

@<SCITEGIC>MOL_PROPERTY
W
SciTegic.value.DoubleValue
-52.567

@<SCITEGIC>MOL_PROPERTY
W(PB)
SciTegic.value.DoubleValue
-54.935

@<SCITEGIC>MOL_PROPERTY
W(SA)
SciTegic.value.DoubleValue
2.367

@<SCITEGIC>MOL_PROPERTY
Valence
SciTegic.value.DoubleValue
7.340

@<SCITEGIC>MOL_PROPERTY
Coulomb
SciTegic.value.DoubleValue
20.552

@<SCITEGIC>MOL_PROPERTY
VdW
SciTegic.value.DoubleValue
0.790

@<SCITEGIC>MOL_PROPERTY
VdW6
SciTegic.value.DoubleValue
-12.015

@<SCITEGIC>MOL_PROPERTY
VdW12
SciTegic.value.DoubleValue
12.806

@<SCITEGIC>MOL_PROPERTY
Bond
SciTegic.value.DoubleValue
0.401

@<SCITEGIC>MOL_PROPERTY
Angle
SciTegic.value.DoubleValue
3.355

@<SCITEGIC>MOL_PROPERTY
Pdih
SciTegic.value.DoubleValue
3.585

@<SCITEGIC>MOL_PROPERTY
Idih
SciTegic.value.DoubleValue
0.000

@<SCITEGIC>MOL_PROPERTY
Tether
SciTegic.value.DoubleValue
0.000

@<TRIPOS>MOLECULE
guest-s15_vm2.mol2 : vm2 ligand conformer 179
          29          28           1
SMALL
USER_CHARGES
 
@<TRIPOS>ATOM
       1    C1      20.015133   19.803142   19.791662 C.3        1 MOL1        -0.2426
       2    H1      20.305319   18.946224   19.170058 H          1 MOL1         0.0959
       3    H2      19.629260   20.586035   19.126099 H          1 MOL1         0.0959
       4    H3      20.917060   20.195996   20.277160 H          1 MOL1         0.0959
       5    C2      18.943995   19.397809   20.829229 C.3        1 MOL1        -0.1410
       6    H4      18.027442   19.108787   20.296385 H          1 MOL1         0.0948
       7    H5      18.672996   20.266738   21.443730 H          1 MOL1         0.0948
       8    C3      19.381981   18.218498   21.733876 C.3        1 MOL1        -0.1435
       9    H6      18.548973   17.947966   22.395168 H          1 MOL1         0.0948
      10    H7      19.549914   17.334668   21.103283 H          1 MOL1         0.0948
      11    C4      20.660505   18.468463   22.579919 C.3        1 MOL1        -0.1435
      12    H8      21.523866   18.531718   21.904239 H          1 MOL1         0.0948
      13    H9      20.845055   17.581613   23.196464 H          1 MOL1         0.0948
      14    C5      20.641739   19.743461   23.469820 C.3        1 MOL1        -0.1435
      15    H10     21.616309   19.855568   23.964447 H          1 MOL1         0.0948
      16    H11     20.553500   20.620591   22.815540 H          1 MOL1         0.0948
      17    C6      19.513071   19.808110   24.536733 C.3        1 MOL1        -0.1500
      18    H12     18.607171   19.302571   24.184077 H          1 MOL1         0.0948
      19    H13     19.231897   20.863180   24.651835 H          1 MOL1         0.0948
      20    C7      19.901555   19.283501   25.940033 C.3        1 MOL1         0.1162
      21    H14     20.767326   19.853993   26.290040 H          1 MOL1         0.0910
      22    C8      20.277748   17.792827   25.941630 C.3        1 MOL1        -0.2491
      23    H15     19.496430   17.183873   25.470068 H          1 MOL1         0.0959
      24    H16     21.221269   17.627505   25.409898 H          1 MOL1         0.0959
      25    H17     20.421128   17.430170   26.966917 H          1 MOL1         0.0959
      26    N1      18.800274   19.540189   26.931100 N.4        1 MOL1        -0.5987
      27    H18     19.068089   19.241095   27.873143 H          1 MOL1         0.3605
      28    H19     17.946906   19.033511   26.680697 H          1 MOL1         0.3605
      29    H20     18.563998   20.535318   26.983127 H          1 MOL1         0.3605
@<TRIPOS>BOND
    1     1     2    1
    2     1     3    1
    3     1     4    1
    4     1     5    1
    5     5     6    1
    6     5     7    1
    7     5     8    1
    8     8     9    1
    9     8    10    1
   10     8    11    1
   11    11    12    1
   12    11    13    1
   13    11    14    1
   14    14    15    1
   15    14    16    1
   16    14    17    1
   17    17    18    1
   18    17    19    1
   19    17    20    1
   20    20    21    1
   21    20    22    1
   22    22    23    1
   23    22    24    1
   24    22    25    1
   25    20    26    1
   26    26    27    1
   27    26    28    1
   28    26    29    1
@<TRIPOS>SUBSTRUCTURE
       1 MOL1            1 RESIDUE      1      MOL     
@<SCITEGIC>MOL_PROPERTY
VM2 Rank
SciTegic.value.IntegerValue
179

@<SCITEGIC>MOL_PROPERTY
Conf_Id
SciTegic.value.IntegerValue
150

@<SCITEGIC>MOL_PROPERTY
Probability
SciTegic.value.DoubleValue
0.00

@<SCITEGIC>MOL_PROPERTY
Sum Probability
SciTegic.value.DoubleValue
99.99

@<SCITEGIC>MOL_PROPERTY
Delta G
SciTegic.value.DoubleValue
5.286

@<SCITEGIC>MOL_PROPERTY
G
SciTegic.value.DoubleValue
38.989

@<SCITEGIC>MOL_PROPERTY
E
SciTegic.value.DoubleValue
0.820

@<SCITEGIC>MOL_PROPERTY
-TS
SciTegic.value.DoubleValue
38.169

@<SCITEGIC>MOL_PROPERTY
U+W
SciTegic.value.DoubleValue
-23.325

@<SCITEGIC>MOL_PROPERTY
U
SciTegic.value.DoubleValue
29.270

@<SCITEGIC>MOL_PROPERTY
W
SciTegic.value.DoubleValue
-52.595

@<SCITEGIC>MOL_PROPERTY
W(PB)
SciTegic.value.DoubleValue
-54.996

@<SCITEGIC>MOL_PROPERTY
W(SA)
SciTegic.value.DoubleValue
2.401

@<SCITEGIC>MOL_PROPERTY
Valence
SciTegic.value.DoubleValue
7.971

@<SCITEGIC>MOL_PROPERTY
Coulomb
SciTegic.value.DoubleValue
20.084

@<SCITEGIC>MOL_PROPERTY
VdW
SciTegic.value.DoubleValue
1.216

@<SCITEGIC>MOL_PROPERTY
VdW6
SciTegic.value.DoubleValue
-11.598

@<SCITEGIC>MOL_PROPERTY
VdW12
SciTegic.value.DoubleValue
12.814

@<SCITEGIC>MOL_PROPERTY
Bond
SciTegic.value.DoubleValue
0.421

@<SCITEGIC>MOL_PROPERTY
Angle
SciTegic.value.DoubleValue
3.121

@<SCITEGIC>MOL_PROPERTY
Pdih
SciTegic.value.DoubleValue
4.428

@<SCITEGIC>MOL_PROPERTY
Idih
SciTegic.value.DoubleValue
0.000

@<SCITEGIC>MOL_PROPERTY
Tether
SciTegic.value.DoubleValue
0.000

@<TRIPOS>MOLECULE
guest-s15_vm2.mol2 : vm2 ligand conformer 180
          29          28           1
SMALL
USER_CHARGES
 
@<TRIPOS>ATOM
       1    C1      19.073756   19.298976   19.757318 C.3        1 MOL1        -0.2426
       2    H1      19.941045   19.824097   19.336531 H          1 MOL1         0.0959
       3    H2      18.554156   18.794437   18.932483 H          1 MOL1         0.0959
       4    H3      18.385945   20.046536   20.171312 H          1 MOL1         0.0959
       5    C2      19.510778   18.273866   20.828141 C.3        1 MOL1        -0.1410
       6    H4      20.091154   17.478769   20.339566 H          1 MOL1         0.0948
       7    H5      18.624104   17.787285   21.257871 H          1 MOL1         0.0948
       8    C3      20.369127   18.890140   21.958963 C.3        1 MOL1        -0.1435
       9    H6      20.731238   18.072240   22.593790 H          1 MOL1         0.0948
      10    H7      21.261849   19.362256   21.526469 H          1 MOL1         0.0948
      11    C4      19.600564   19.922961   22.821887 C.3        1 MOL1        -0.1435
      12    H8      18.673006   19.484202   23.206951 H          1 MOL1         0.0948
      13    H9      19.288355   20.759817   22.183789 H          1 MOL1         0.0948
      14    C5      20.442068   20.507585   23.984016 C.3        1 MOL1        -0.1435
      15    H10     21.304003   21.033265   23.550524 H          1 MOL1         0.0948
      16    H11     19.855660   21.287266   24.488106 H          1 MOL1         0.0948
      17    C6      20.976465   19.498443   25.043486 C.3        1 MOL1        -0.1500
      18    H12     21.581473   20.074231   25.755952 H          1 MOL1         0.0948
      19    H13     21.682582   18.798280   24.579898 H          1 MOL1         0.0948
      20    C7      19.928856   18.713511   25.875662 C.3        1 MOL1         0.1162
      21    H14     20.423759   18.428342   26.809172 H          1 MOL1         0.0910
      22    C8      19.487837   17.400928   25.202883 C.3        1 MOL1        -0.2491
      23    H15     18.907278   17.572375   24.291785 H          1 MOL1         0.0959
      24    H16     20.357710   16.785130   24.943397 H          1 MOL1         0.0959
      25    H17     18.863294   16.814096   25.887467 H          1 MOL1         0.0959
      26    N1      18.746547   19.549590   26.281643 N.4        1 MOL1        -0.5987
      27    H18     18.100126   19.022121   26.875336 H          1 MOL1         0.3605
      28    H19     18.225204   19.870230   25.461979 H          1 MOL1         0.3605
      29    H20     19.038690   20.379170   26.806067 H          1 MOL1         0.3605
@<TRIPOS>BOND
    1     1     2    1
    2     1     3    1
    3     1     4    1
    4     1     5    1
    5     5     6    1
    6     5     7    1
    7     5     8    1
    8     8     9    1
    9     8    10    1
   10     8    11    1
   11    11    12    1
   12    11    13    1
   13    11    14    1
   14    14    15    1
   15    14    16    1
   16    14    17    1
   17    17    18    1
   18    17    19    1
   19    17    20    1
   20    20    21    1
   21    20    22    1
   22    22    23    1
   23    22    24    1
   24    22    25    1
   25    20    26    1
   26    26    27    1
   27    26    28    1
   28    26    29    1
@<TRIPOS>SUBSTRUCTURE
       1 MOL1            1 RESIDUE      1      MOL     
@<SCITEGIC>MOL_PROPERTY
VM2 Rank
SciTegic.value.IntegerValue
180

@<SCITEGIC>MOL_PROPERTY
Conf_Id
SciTegic.value.IntegerValue
1684

@<SCITEGIC>MOL_PROPERTY
Probability
SciTegic.value.DoubleValue
0.00

@<SCITEGIC>MOL_PROPERTY
Sum Probability
SciTegic.value.DoubleValue
99.99

@<SCITEGIC>MOL_PROPERTY
Delta G
SciTegic.value.DoubleValue
5.383

@<SCITEGIC>MOL_PROPERTY
G
SciTegic.value.DoubleValue
39.085

@<SCITEGIC>MOL_PROPERTY
E
SciTegic.value.DoubleValue
0.530

@<SCITEGIC>MOL_PROPERTY
-TS
SciTegic.value.DoubleValue
38.555

@<SCITEGIC>MOL_PROPERTY
U+W
SciTegic.value.DoubleValue
-23.614

@<SCITEGIC>MOL_PROPERTY
U
SciTegic.value.DoubleValue
28.926

@<SCITEGIC>MOL_PROPERTY
W
SciTegic.value.DoubleValue
-52.540

@<SCITEGIC>MOL_PROPERTY
W(PB)
SciTegic.value.DoubleValue
-54.911

@<SCITEGIC>MOL_PROPERTY
W(SA)
SciTegic.value.DoubleValue
2.371

@<SCITEGIC>MOL_PROPERTY
Valence
SciTegic.value.DoubleValue
7.432

@<SCITEGIC>MOL_PROPERTY
Coulomb
SciTegic.value.DoubleValue
20.573

@<SCITEGIC>MOL_PROPERTY
VdW
SciTegic.value.DoubleValue
0.921

@<SCITEGIC>MOL_PROPERTY
VdW6
SciTegic.value.DoubleValue
-11.861

@<SCITEGIC>MOL_PROPERTY
VdW12
SciTegic.value.DoubleValue
12.782

@<SCITEGIC>MOL_PROPERTY
Bond
SciTegic.value.DoubleValue
0.398

@<SCITEGIC>MOL_PROPERTY
Angle
SciTegic.value.DoubleValue
3.290

@<SCITEGIC>MOL_PROPERTY
Pdih
SciTegic.value.DoubleValue
3.744

@<SCITEGIC>MOL_PROPERTY
Idih
SciTegic.value.DoubleValue
0.000

@<SCITEGIC>MOL_PROPERTY
Tether
SciTegic.value.DoubleValue
0.000

@<TRIPOS>MOLECULE
guest-s15_vm2.mol2 : vm2 ligand conformer 181
          29          28           1
SMALL
USER_CHARGES
 
@<TRIPOS>ATOM
       1    C1      19.465904   20.017313   19.699776 C.3        1 MOL1        -0.2426
       2    H1      20.284182   20.689192   19.986817 H          1 MOL1         0.0959
       3    H2      19.897780   19.146040   19.190467 H          1 MOL1         0.0959
       4    H3      18.838869   20.552873   18.975260 H          1 MOL1         0.0959
       5    C2      18.628110   19.586081   20.924731 C.3        1 MOL1        -0.1410
       6    H4      17.752454   19.023066   20.572466 H          1 MOL1         0.0948
       7    H5      18.235558   20.476587   21.434909 H          1 MOL1         0.0948
       8    C3      19.411245   18.706421   21.929000 C.3        1 MOL1        -0.1435
       9    H6      18.706843   18.349992   22.690166 H          1 MOL1         0.0948
      10    H7      19.784686   17.809617   21.415742 H          1 MOL1         0.0948
      11    C4      20.594699   19.446461   22.603332 C.3        1 MOL1        -0.1435
      12    H8      20.256783   20.389289   23.049798 H          1 MOL1         0.0948
      13    H9      21.321157   19.733233   21.831744 H          1 MOL1         0.0948
      14    C5      21.345296   18.591843   23.656785 C.3        1 MOL1        -0.1435
      15    H10     21.790485   17.725394   23.148508 H          1 MOL1         0.0948
      16    H11     22.192454   19.177329   24.040062 H          1 MOL1         0.0948
      17    C6      20.513031   18.076970   24.863839 C.3        1 MOL1        -0.1500
      18    H12     21.188926   17.468518   25.479431 H          1 MOL1         0.0948
      19    H13     19.725547   17.389804   24.530007 H          1 MOL1         0.0948
      20    C7      19.908218   19.189224   25.752832 C.3        1 MOL1         0.1162
      21    H14     20.644465   19.993547   25.844988 H          1 MOL1         0.0910
      22    C8      19.606157   18.648363   27.160007 C.3        1 MOL1        -0.2491
      23    H15     18.882645   17.824329   27.121429 H          1 MOL1         0.0959
      24    H16     20.520244   18.278754   27.641252 H          1 MOL1         0.0959
      25    H17     19.191911   19.437901   27.799162 H          1 MOL1         0.0959
      26    N1      18.663340   19.793325   25.163696 N.4        1 MOL1        -0.5987
      27    H18     18.331808   20.586092   25.721034 H          1 MOL1         0.3605
      28    H19     17.903899   19.108524   25.122548 H          1 MOL1         0.3605
      29    H20     18.830482   20.127092   24.210805 H          1 MOL1         0.3605
@<TRIPOS>BOND
    1     1     2    1
    2     1     3    1
    3     1     4    1
    4     1     5    1
    5     5     6    1
    6     5     7    1
    7     5     8    1
    8     8     9    1
    9     8    10    1
   10     8    11    1
   11    11    12    1
   12    11    13    1
   13    11    14    1
   14    14    15    1
   15    14    16    1
   16    14    17    1
   17    17    18    1
   18    17    19    1
   19    17    20    1
   20    20    21    1
   21    20    22    1
   22    22    23    1
   23    22    24    1
   24    22    25    1
   25    20    26    1
   26    26    27    1
   27    26    28    1
   28    26    29    1
@<TRIPOS>SUBSTRUCTURE
       1 MOL1            1 RESIDUE      1      MOL     
@<SCITEGIC>MOL_PROPERTY
VM2 Rank
SciTegic.value.IntegerValue
181

@<SCITEGIC>MOL_PROPERTY
Conf_Id
SciTegic.value.IntegerValue
1486

@<SCITEGIC>MOL_PROPERTY
Probability
SciTegic.value.DoubleValue
0.00

@<SCITEGIC>MOL_PROPERTY
Sum Probability
SciTegic.value.DoubleValue
99.99

@<SCITEGIC>MOL_PROPERTY
Delta G
SciTegic.value.DoubleValue
5.471

@<SCITEGIC>MOL_PROPERTY
G
SciTegic.value.DoubleValue
39.173

@<SCITEGIC>MOL_PROPERTY
E
SciTegic.value.DoubleValue
0.987

@<SCITEGIC>MOL_PROPERTY
-TS
SciTegic.value.DoubleValue
38.187

@<SCITEGIC>MOL_PROPERTY
U+W
SciTegic.value.DoubleValue
-23.158

@<SCITEGIC>MOL_PROPERTY
U
SciTegic.value.DoubleValue
28.492

@<SCITEGIC>MOL_PROPERTY
W
SciTegic.value.DoubleValue
-51.650

@<SCITEGIC>MOL_PROPERTY
W(PB)
SciTegic.value.DoubleValue
-54.088

@<SCITEGIC>MOL_PROPERTY
W(SA)
SciTegic.value.DoubleValue
2.439

@<SCITEGIC>MOL_PROPERTY
Valence
SciTegic.value.DoubleValue
6.023

@<SCITEGIC>MOL_PROPERTY
Coulomb
SciTegic.value.DoubleValue
21.518

@<SCITEGIC>MOL_PROPERTY
VdW
SciTegic.value.DoubleValue
0.950

@<SCITEGIC>MOL_PROPERTY
VdW6
SciTegic.value.DoubleValue
-11.102

@<SCITEGIC>MOL_PROPERTY
VdW12
SciTegic.value.DoubleValue
12.053

@<SCITEGIC>MOL_PROPERTY
Bond
SciTegic.value.DoubleValue
0.333

@<SCITEGIC>MOL_PROPERTY
Angle
SciTegic.value.DoubleValue
2.459

@<SCITEGIC>MOL_PROPERTY
Pdih
SciTegic.value.DoubleValue
3.230

@<SCITEGIC>MOL_PROPERTY
Idih
SciTegic.value.DoubleValue
0.000

@<SCITEGIC>MOL_PROPERTY
Tether
SciTegic.value.DoubleValue
0.000

@<TRIPOS>MOLECULE
guest-s15_vm2.mol2 : vm2 ligand conformer 182
          29          28           1
SMALL
USER_CHARGES
 
@<TRIPOS>ATOM
       1    C1      20.543976   18.675592   20.023190 C.3        1 MOL1        -0.2426
       2    H1      21.274756   18.479731   20.817795 H          1 MOL1         0.0959
       3    H2      20.056544   17.727528   19.761437 H          1 MOL1         0.0959
       4    H3      21.099047   19.023060   19.142291 H          1 MOL1         0.0959
       5    C2      19.504501   19.732457   20.459585 C.3        1 MOL1        -0.1410
       6    H4      18.874874   19.986386   19.595459 H          1 MOL1         0.0948
       7    H5      20.016506   20.662772   20.738629 H          1 MOL1         0.0948
       8    C3      18.585637   19.256002   21.613812 C.3        1 MOL1        -0.1435
       9    H6      17.874246   20.058024   21.854137 H          1 MOL1         0.0948
      10    H7      17.978016   18.414500   21.253506 H          1 MOL1         0.0948
      11    C4      19.311791   18.818315   22.912654 C.3        1 MOL1        -0.1435
      12    H8      19.962289   17.958078   22.707136 H          1 MOL1         0.0948
      13    H9      18.544491   18.465663   23.611149 H          1 MOL1         0.0948
      14    C5      20.129790   19.951726   23.579610 C.3        1 MOL1        -0.1435
      15    H10     20.833272   20.365048   22.846024 H          1 MOL1         0.0948
      16    H11     19.460977   20.779951   23.848963 H          1 MOL1         0.0948
      17    C6      20.965806   19.516273   24.816850 C.3        1 MOL1        -0.1500
      18    H12     21.530321   20.395812   25.152981 H          1 MOL1         0.0948
      19    H13     21.726983   18.787745   24.507844 H          1 MOL1         0.0948
      20    C7      20.195126   18.971423   26.047407 C.3        1 MOL1         0.1162
      21    H14     20.821542   19.171650   26.922181 H          1 MOL1         0.0910
      22    C8      20.000657   17.444531   25.996771 C.3        1 MOL1        -0.2491
      23    H15     20.964624   16.934982   25.876190 H          1 MOL1         0.0959
      24    H16     19.555328   17.085639   26.932736 H          1 MOL1         0.0959
      25    H17     19.347937   17.130891   25.176926 H          1 MOL1         0.0959
      26    N1      18.898716   19.689681   26.304121 N.4        1 MOL1        -0.5987
      27    H18     18.250232   19.568093   25.522343 H          1 MOL1         0.3605
      28    H19     19.048102   20.695224   26.427386 H          1 MOL1         0.3605
      29    H20     18.437449   19.341405   27.149436 H          1 MOL1         0.3605
@<TRIPOS>BOND
    1     1     2    1
    2     1     3    1
    3     1     4    1
    4     1     5    1
    5     5     6    1
    6     5     7    1
    7     5     8    1
    8     8     9    1
    9     8    10    1
   10     8    11    1
   11    11    12    1
   12    11    13    1
   13    11    14    1
   14    14    15    1
   15    14    16    1
   16    14    17    1
   17    17    18    1
   18    17    19    1
   19    17    20    1
   20    20    21    1
   21    20    22    1
   22    22    23    1
   23    22    24    1
   24    22    25    1
   25    20    26    1
   26    26    27    1
   27    26    28    1
   28    26    29    1
@<TRIPOS>SUBSTRUCTURE
       1 MOL1            1 RESIDUE      1      MOL     
@<SCITEGIC>MOL_PROPERTY
VM2 Rank
SciTegic.value.IntegerValue
182

@<SCITEGIC>MOL_PROPERTY
Conf_Id
SciTegic.value.IntegerValue
895

@<SCITEGIC>MOL_PROPERTY
Probability
SciTegic.value.DoubleValue
0.00

@<SCITEGIC>MOL_PROPERTY
Sum Probability
SciTegic.value.DoubleValue
99.99

@<SCITEGIC>MOL_PROPERTY
Delta G
SciTegic.value.DoubleValue
5.485

@<SCITEGIC>MOL_PROPERTY
G
SciTegic.value.DoubleValue
39.188

@<SCITEGIC>MOL_PROPERTY
E
SciTegic.value.DoubleValue
0.911

@<SCITEGIC>MOL_PROPERTY
-TS
SciTegic.value.DoubleValue
38.276

@<SCITEGIC>MOL_PROPERTY
U+W
SciTegic.value.DoubleValue
-23.233

@<SCITEGIC>MOL_PROPERTY
U
SciTegic.value.DoubleValue
29.228

@<SCITEGIC>MOL_PROPERTY
W
SciTegic.value.DoubleValue
-52.461

@<SCITEGIC>MOL_PROPERTY
W(PB)
SciTegic.value.DoubleValue
-54.865

@<SCITEGIC>MOL_PROPERTY
W(SA)
SciTegic.value.DoubleValue
2.404

@<SCITEGIC>MOL_PROPERTY
Valence
SciTegic.value.DoubleValue
7.394

@<SCITEGIC>MOL_PROPERTY
Coulomb
SciTegic.value.DoubleValue
20.563

@<SCITEGIC>MOL_PROPERTY
VdW
SciTegic.value.DoubleValue
1.270

@<SCITEGIC>MOL_PROPERTY
VdW6
SciTegic.value.DoubleValue
-11.433

@<SCITEGIC>MOL_PROPERTY
VdW12
SciTegic.value.DoubleValue
12.704

@<SCITEGIC>MOL_PROPERTY
Bond
SciTegic.value.DoubleValue
0.391

@<SCITEGIC>MOL_PROPERTY
Angle
SciTegic.value.DoubleValue
3.156

@<SCITEGIC>MOL_PROPERTY
Pdih
SciTegic.value.DoubleValue
3.847

@<SCITEGIC>MOL_PROPERTY
Idih
SciTegic.value.DoubleValue
0.000

@<SCITEGIC>MOL_PROPERTY
Tether
SciTegic.value.DoubleValue
0.000

@<TRIPOS>MOLECULE
guest-s15_vm2.mol2 : vm2 ligand conformer 183
          29          28           1
SMALL
USER_CHARGES
 
@<TRIPOS>ATOM
       1    C1      19.096043   19.006446   19.771935 C.3        1 MOL1        -0.2426
       2    H1      20.068050   19.198165   19.299209 H          1 MOL1         0.0959
       3    H2      19.058189   17.950201   20.065710 H          1 MOL1         0.0959
       4    H3      18.317345   19.165849   19.014881 H          1 MOL1         0.0959
       5    C2      18.872694   19.941388   20.982042 C.3        1 MOL1        -0.1410
       6    H4      17.909714   19.706912   21.456425 H          1 MOL1         0.0948
       7    H5      18.792279   20.975486   20.618731 H          1 MOL1         0.0948
       8    C3      20.007238   19.872368   22.032583 C.3        1 MOL1        -0.1435
       9    H6      20.963528   20.127196   21.555451 H          1 MOL1         0.0948
      10    H7      19.824381   20.651003   22.782733 H          1 MOL1         0.0948
      11    C4      20.125382   18.488868   22.721265 C.3        1 MOL1        -0.1435
      12    H8      20.379283   17.734932   21.964740 H          1 MOL1         0.0948
      13    H9      19.156451   18.179274   23.129943 H          1 MOL1         0.0948
      14    C5      21.215751   18.433666   23.821958 C.3        1 MOL1        -0.1435
      15    H10     21.289375   17.403026   24.193986 H          1 MOL1         0.0948
      16    H11     22.188422   18.641164   23.355127 H          1 MOL1         0.0948
      17    C6      21.039260   19.402980   25.027927 C.3        1 MOL1        -0.1500
      18    H12     21.132335   20.442070   24.688590 H          1 MOL1         0.0948
      19    H13     21.891957   19.248025   25.701968 H          1 MOL1         0.0948
      20    C7      19.748691   19.257640   25.874384 C.3        1 MOL1         0.1162
      21    H14     19.896331   19.850062   26.782621 H          1 MOL1         0.0910
      22    C8      19.494508   17.804890   26.312798 C.3        1 MOL1        -0.2491
      23    H15     18.660852   17.758706   27.024108 H          1 MOL1         0.0959
      24    H16     19.244242   17.161941   25.460614 H          1 MOL1         0.0959
      25    H17     20.379543   17.388764   26.809870 H          1 MOL1         0.0959
      26    N1      18.536433   19.847753   25.209108 N.4        1 MOL1        -0.5987
      27    H18     17.701795   19.744268   25.793487 H          1 MOL1         0.3605
      28    H19     18.350628   19.391460   24.312982 H          1 MOL1         0.3605
      29    H20     18.660710   20.847611   25.026832 H          1 MOL1         0.3605
@<TRIPOS>BOND
    1     1     2    1
    2     1     3    1
    3     1     4    1
    4     1     5    1
    5     5     6    1
    6     5     7    1
    7     5     8    1
    8     8     9    1
    9     8    10    1
   10     8    11    1
   11    11    12    1
   12    11    13    1
   13    11    14    1
   14    14    15    1
   15    14    16    1
   16    14    17    1
   17    17    18    1
   18    17    19    1
   19    17    20    1
   20    20    21    1
   21    20    22    1
   22    22    23    1
   23    22    24    1
   24    22    25    1
   25    20    26    1
   26    26    27    1
   27    26    28    1
   28    26    29    1
@<TRIPOS>SUBSTRUCTURE
       1 MOL1            1 RESIDUE      1      MOL     
@<SCITEGIC>MOL_PROPERTY
VM2 Rank
SciTegic.value.IntegerValue
183

@<SCITEGIC>MOL_PROPERTY
Conf_Id
SciTegic.value.IntegerValue
1525

@<SCITEGIC>MOL_PROPERTY
Probability
SciTegic.value.DoubleValue
0.00

@<SCITEGIC>MOL_PROPERTY
Sum Probability
SciTegic.value.DoubleValue
99.99

@<SCITEGIC>MOL_PROPERTY
Delta G
SciTegic.value.DoubleValue
5.589

@<SCITEGIC>MOL_PROPERTY
G
SciTegic.value.DoubleValue
39.291

@<SCITEGIC>MOL_PROPERTY
E
SciTegic.value.DoubleValue
0.689

@<SCITEGIC>MOL_PROPERTY
-TS
SciTegic.value.DoubleValue
38.602

@<SCITEGIC>MOL_PROPERTY
U+W
SciTegic.value.DoubleValue
-23.455

@<SCITEGIC>MOL_PROPERTY
U
SciTegic.value.DoubleValue
28.746

@<SCITEGIC>MOL_PROPERTY
W
SciTegic.value.DoubleValue
-52.201

@<SCITEGIC>MOL_PROPERTY
W(PB)
SciTegic.value.DoubleValue
-54.565

@<SCITEGIC>MOL_PROPERTY
W(SA)
SciTegic.value.DoubleValue
2.364

@<SCITEGIC>MOL_PROPERTY
Valence
SciTegic.value.DoubleValue
6.147

@<SCITEGIC>MOL_PROPERTY
Coulomb
SciTegic.value.DoubleValue
21.776

@<SCITEGIC>MOL_PROPERTY
VdW
SciTegic.value.DoubleValue
0.823

@<SCITEGIC>MOL_PROPERTY
VdW6
SciTegic.value.DoubleValue
-12.079

@<SCITEGIC>MOL_PROPERTY
VdW12
SciTegic.value.DoubleValue
12.902

@<SCITEGIC>MOL_PROPERTY
Bond
SciTegic.value.DoubleValue
0.393

@<SCITEGIC>MOL_PROPERTY
Angle
SciTegic.value.DoubleValue
2.949

@<SCITEGIC>MOL_PROPERTY
Pdih
SciTegic.value.DoubleValue
2.805

@<SCITEGIC>MOL_PROPERTY
Idih
SciTegic.value.DoubleValue
0.000

@<SCITEGIC>MOL_PROPERTY
Tether
SciTegic.value.DoubleValue
0.000

@<TRIPOS>MOLECULE
guest-s15_vm2.mol2 : vm2 ligand conformer 184
          29          28           1
SMALL
USER_CHARGES
 
@<TRIPOS>ATOM
       1    C1      19.876003   19.071774   19.841097 C.3        1 MOL1        -0.2426
       2    H1      20.230829   18.087485   20.170942 H          1 MOL1         0.0959
       3    H2      18.864110   18.953821   19.432369 H          1 MOL1         0.0959
       4    H3      20.531606   19.403253   19.025562 H          1 MOL1         0.0959
       5    C2      19.891304   20.095976   20.998131 C.3        1 MOL1        -0.1410
       6    H4      19.641558   21.087385   20.595304 H          1 MOL1         0.0948
       7    H5      20.908638   20.183041   21.402321 H          1 MOL1         0.0948
       8    C3      18.891207   19.758528   22.132842 C.3        1 MOL1        -0.1435
       9    H6      18.921388   20.564293   22.876324 H          1 MOL1         0.0948
      10    H7      17.872686   19.773617   21.721207 H          1 MOL1         0.0948
      11    C4      19.123288   18.390653   22.830484 C.3        1 MOL1        -0.1435
      12    H8      18.957392   17.586536   22.101409 H          1 MOL1         0.0948
      13    H9      18.353429   18.235912   23.595574 H          1 MOL1         0.0948
      14    C5      20.529170   18.200719   23.459139 C.3        1 MOL1        -0.1435
      15    H10     20.589181   17.194912   23.895060 H          1 MOL1         0.0948
      16    H11     21.276416   18.201733   22.654730 H          1 MOL1         0.0948
      17    C6      20.956291   19.254070   24.522890 C.3        1 MOL1        -0.1500
      18    H12     20.995754   20.250495   24.065436 H          1 MOL1         0.0948
      19    H13     21.992254   19.030739   24.809668 H          1 MOL1         0.0948
      20    C7      20.122467   19.324867   25.828206 C.3        1 MOL1         0.1162
      21    H14     20.682405   19.953492   26.527448 H          1 MOL1         0.0910
      22    C8      19.948546   17.947189   26.490527 C.3        1 MOL1        -0.2491
      23    H15     20.919439   17.453920   26.623159 H          1 MOL1         0.0959
      24    H16     19.490643   18.052810   27.481615 H          1 MOL1         0.0959
      25    H17     19.306008   17.289428   25.893049 H          1 MOL1         0.0959
      26    N1      18.797723   20.012223   25.650682 N.4        1 MOL1        -0.5987
      27    H18     18.211969   19.512908   24.977801 H          1 MOL1         0.3605
      28    H19     18.916910   20.969682   25.308296 H          1 MOL1         0.3605
      29    H20     18.282936   20.064537   26.534432 H          1 MOL1         0.3605
@<TRIPOS>BOND
    1     1     2    1
    2     1     3    1
    3     1     4    1
    4     1     5    1
    5     5     6    1
    6     5     7    1
    7     5     8    1
    8     8     9    1
    9     8    10    1
   10     8    11    1
   11    11    12    1
   12    11    13    1
   13    11    14    1
   14    14    15    1
   15    14    16    1
   16    14    17    1
   17    17    18    1
   18    17    19    1
   19    17    20    1
   20    20    21    1
   21    20    22    1
   22    22    23    1
   23    22    24    1
   24    22    25    1
   25    20    26    1
   26    26    27    1
   27    26    28    1
   28    26    29    1
@<TRIPOS>SUBSTRUCTURE
       1 MOL1            1 RESIDUE      1      MOL     
@<SCITEGIC>MOL_PROPERTY
VM2 Rank
SciTegic.value.IntegerValue
184

@<SCITEGIC>MOL_PROPERTY
Conf_Id
SciTegic.value.IntegerValue
952

@<SCITEGIC>MOL_PROPERTY
Probability
SciTegic.value.DoubleValue
0.00

@<SCITEGIC>MOL_PROPERTY
Sum Probability
SciTegic.value.DoubleValue
99.99

@<SCITEGIC>MOL_PROPERTY
Delta G
SciTegic.value.DoubleValue
5.720

@<SCITEGIC>MOL_PROPERTY
G
SciTegic.value.DoubleValue
39.423

@<SCITEGIC>MOL_PROPERTY
E
SciTegic.value.DoubleValue
0.461

@<SCITEGIC>MOL_PROPERTY
-TS
SciTegic.value.DoubleValue
38.962

@<SCITEGIC>MOL_PROPERTY
U+W
SciTegic.value.DoubleValue
-23.684

@<SCITEGIC>MOL_PROPERTY
U
SciTegic.value.DoubleValue
28.968

@<SCITEGIC>MOL_PROPERTY
W
SciTegic.value.DoubleValue
-52.652

@<SCITEGIC>MOL_PROPERTY
W(PB)
SciTegic.value.DoubleValue
-55.007

@<SCITEGIC>MOL_PROPERTY
W(SA)
SciTegic.value.DoubleValue
2.355

@<SCITEGIC>MOL_PROPERTY
Valence
SciTegic.value.DoubleValue
6.483

@<SCITEGIC>MOL_PROPERTY
Coulomb
SciTegic.value.DoubleValue
21.800

@<SCITEGIC>MOL_PROPERTY
VdW
SciTegic.value.DoubleValue
0.686

@<SCITEGIC>MOL_PROPERTY
VdW6
SciTegic.value.DoubleValue
-13.002

@<SCITEGIC>MOL_PROPERTY
VdW12
SciTegic.value.DoubleValue
13.687

@<SCITEGIC>MOL_PROPERTY
Bond
SciTegic.value.DoubleValue
0.441

@<SCITEGIC>MOL_PROPERTY
Angle
SciTegic.value.DoubleValue
3.285

@<SCITEGIC>MOL_PROPERTY
Pdih
SciTegic.value.DoubleValue
2.757

@<SCITEGIC>MOL_PROPERTY
Idih
SciTegic.value.DoubleValue
0.000

@<SCITEGIC>MOL_PROPERTY
Tether
SciTegic.value.DoubleValue
0.000

@<TRIPOS>MOLECULE
guest-s15_vm2.mol2 : vm2 ligand conformer 185
          29          28           1
SMALL
USER_CHARGES
 
@<TRIPOS>ATOM
       1    C1      19.347771   21.014081   20.544933 C.3        1 MOL1        -0.2426
       2    H1      19.544938   21.769849   21.316350 H          1 MOL1         0.0959
       3    H2      20.174405   21.039337   19.822912 H          1 MOL1         0.0959
       4    H3      18.430430   21.303591   20.016010 H          1 MOL1         0.0959
       5    C2      19.197678   19.609996   21.167391 C.3        1 MOL1        -0.1410
       6    H4      18.972685   18.883198   20.374323 H          1 MOL1         0.0948
       7    H5      18.334757   19.614023   21.844118 H          1 MOL1         0.0948
       8    C3      20.482257   19.180560   21.915934 C.3        1 MOL1        -0.1435
       9    H6      21.323401   19.222154   21.210150 H          1 MOL1         0.0948
      10    H7      20.721531   19.909797   22.696414 H          1 MOL1         0.0948
      11    C4      20.418694   17.742823   22.496988 C.3        1 MOL1        -0.1435
      12    H8      21.410134   17.461039   22.877337 H          1 MOL1         0.0948
      13    H9      20.218797   17.053861   21.664645 H          1 MOL1         0.0948
      14    C5      19.356485   17.489707   23.602713 C.3        1 MOL1        -0.1435
      15    H10     18.403349   17.972015   23.357472 H          1 MOL1         0.0948
      16    H11     19.134329   16.413608   23.602301 H          1 MOL1         0.0948
      17    C6      19.801380   17.856323   25.045013 C.3        1 MOL1        -0.1500
      18    H12     20.696279   17.272444   25.298040 H          1 MOL1         0.0948
      19    H13     19.019654   17.527589   25.742737 H          1 MOL1         0.0948
      20    C7      20.094552   19.351084   25.295210 C.3        1 MOL1         0.1162
      21    H14     20.935867   19.646982   24.663602 H          1 MOL1         0.0910
      22    C8      20.502932   19.577458   26.759330 C.3        1 MOL1        -0.2491
      23    H15     20.757097   20.630370   26.932949 H          1 MOL1         0.0959
      24    H16     19.691359   19.304362   27.445396 H          1 MOL1         0.0959
      25    H17     21.383890   18.975690   27.015342 H          1 MOL1         0.0959
      26    N1      18.934252   20.233969   24.926487 N.4        1 MOL1        -0.5987
      27    H18     19.150923   21.222419   25.084384 H          1 MOL1         0.3605
      28    H19     18.104548   20.008051   25.481879 H          1 MOL1         0.3605
      29    H20     18.689926   20.121845   23.938586 H          1 MOL1         0.3605
@<TRIPOS>BOND
    1     1     2    1
    2     1     3    1
    3     1     4    1
    4     1     5    1
    5     5     6    1
    6     5     7    1
    7     5     8    1
    8     8     9    1
    9     8    10    1
   10     8    11    1
   11    11    12    1
   12    11    13    1
   13    11    14    1
   14    14    15    1
   15    14    16    1
   16    14    17    1
   17    17    18    1
   18    17    19    1
   19    17    20    1
   20    20    21    1
   21    20    22    1
   22    22    23    1
   23    22    24    1
   24    22    25    1
   25    20    26    1
   26    26    27    1
   27    26    28    1
   28    26    29    1
@<TRIPOS>SUBSTRUCTURE
       1 MOL1            1 RESIDUE      1      MOL     
@<SCITEGIC>MOL_PROPERTY
VM2 Rank
SciTegic.value.IntegerValue
185

@<SCITEGIC>MOL_PROPERTY
Conf_Id
SciTegic.value.IntegerValue
1663

@<SCITEGIC>MOL_PROPERTY
Probability
SciTegic.value.DoubleValue
0.00

@<SCITEGIC>MOL_PROPERTY
Sum Probability
SciTegic.value.DoubleValue
99.99

@<SCITEGIC>MOL_PROPERTY
Delta G
SciTegic.value.DoubleValue
5.723

@<SCITEGIC>MOL_PROPERTY
G
SciTegic.value.DoubleValue
39.425

@<SCITEGIC>MOL_PROPERTY
E
SciTegic.value.DoubleValue
1.164

@<SCITEGIC>MOL_PROPERTY
-TS
SciTegic.value.DoubleValue
38.261

@<SCITEGIC>MOL_PROPERTY
U+W
SciTegic.value.DoubleValue
-22.980

@<SCITEGIC>MOL_PROPERTY
U
SciTegic.value.DoubleValue
28.533

@<SCITEGIC>MOL_PROPERTY
W
SciTegic.value.DoubleValue
-51.514

@<SCITEGIC>MOL_PROPERTY
W(PB)
SciTegic.value.DoubleValue
-53.940

@<SCITEGIC>MOL_PROPERTY
W(SA)
SciTegic.value.DoubleValue
2.426

@<SCITEGIC>MOL_PROPERTY
Valence
SciTegic.value.DoubleValue
6.517

@<SCITEGIC>MOL_PROPERTY
Coulomb
SciTegic.value.DoubleValue
21.462

@<SCITEGIC>MOL_PROPERTY
VdW
SciTegic.value.DoubleValue
0.554

@<SCITEGIC>MOL_PROPERTY
VdW6
SciTegic.value.DoubleValue
-11.293

@<SCITEGIC>MOL_PROPERTY
VdW12
SciTegic.value.DoubleValue
11.847

@<SCITEGIC>MOL_PROPERTY
Bond
SciTegic.value.DoubleValue
0.345

@<SCITEGIC>MOL_PROPERTY
Angle
SciTegic.value.DoubleValue
2.712

@<SCITEGIC>MOL_PROPERTY
Pdih
SciTegic.value.DoubleValue
3.461

@<SCITEGIC>MOL_PROPERTY
Idih
SciTegic.value.DoubleValue
0.000

@<SCITEGIC>MOL_PROPERTY
Tether
SciTegic.value.DoubleValue
0.000

@<TRIPOS>MOLECULE
guest-s15_vm2.mol2 : vm2 ligand conformer 186
          29          28           1
SMALL
USER_CHARGES
 
@<TRIPOS>ATOM
       1    C1      18.255453   19.899153   20.890189 C.3        1 MOL1        -0.2426
       2    H1      17.666321   19.030232   20.569413 H          1 MOL1         0.0959
       3    H2      18.051677   20.080410   21.952221 H          1 MOL1         0.0959
       4    H3      17.896655   20.773110   20.331305 H          1 MOL1         0.0959
       5    C2      19.762345   19.673761   20.632141 C.3        1 MOL1        -0.1410
       6    H4      20.332812   20.545168   20.980513 H          1 MOL1         0.0948
       7    H5      19.930253   19.618836   19.547516 H          1 MOL1         0.0948
       8    C3      20.312320   18.378330   21.281549 C.3        1 MOL1        -0.1435
       9    H6      19.799356   17.513231   20.839318 H          1 MOL1         0.0948
      10    H7      21.371685   18.269302   21.011387 H          1 MOL1         0.0948
      11    C4      20.175303   18.304263   22.823888 C.3        1 MOL1        -0.1435
      12    H8      20.585901   17.343066   23.162190 H          1 MOL1         0.0948
      13    H9      19.112113   18.299135   23.089201 H          1 MOL1         0.0948
      14    C5      20.905033   19.454887   23.558989 C.3        1 MOL1        -0.1435
      15    H10     21.912697   19.556035   23.132974 H          1 MOL1         0.0948
      16    H11     20.400357   20.408299   23.356635 H          1 MOL1         0.0948
      17    C6      21.058960   19.257523   25.093847 C.3        1 MOL1        -0.1500
      18    H12     21.643487   20.105517   25.473952 H          1 MOL1         0.0948
      19    H13     21.676525   18.371425   25.291366 H          1 MOL1         0.0948
      20    C7      19.759809   19.183062   25.937421 C.3        1 MOL1         0.1162
      21    H14     20.028890   19.488991   26.953160 H          1 MOL1         0.0910
      22    C8      19.203728   17.751558   26.049627 C.3        1 MOL1        -0.2491
      23    H15     18.837784   17.367718   25.092905 H          1 MOL1         0.0959
      24    H16     19.973474   17.063549   26.420464 H          1 MOL1         0.0959
      25    H17     18.368395   17.722437   26.759927 H          1 MOL1         0.0959
      26    N1      18.703048   20.153463   25.486349 N.4        1 MOL1        -0.5987
      27    H18     19.052202   21.116161   25.497632 H          1 MOL1         0.3605
      28    H19     17.878493   20.118252   26.092744 H          1 MOL1         0.3605
      29    H20     18.398559   19.945421   24.532319 H          1 MOL1         0.3605
@<TRIPOS>BOND
    1     1     2    1
    2     1     3    1
    3     1     4    1
    4     1     5    1
    5     5     6    1
    6     5     7    1
    7     5     8    1
    8     8     9    1
    9     8    10    1
   10     8    11    1
   11    11    12    1
   12    11    13    1
   13    11    14    1
   14    14    15    1
   15    14    16    1
   16    14    17    1
   17    17    18    1
   18    17    19    1
   19    17    20    1
   20    20    21    1
   21    20    22    1
   22    22    23    1
   23    22    24    1
   24    22    25    1
   25    20    26    1
   26    26    27    1
   27    26    28    1
   28    26    29    1
@<TRIPOS>SUBSTRUCTURE
       1 MOL1            1 RESIDUE      1      MOL     
@<SCITEGIC>MOL_PROPERTY
VM2 Rank
SciTegic.value.IntegerValue
186

@<SCITEGIC>MOL_PROPERTY
Conf_Id
SciTegic.value.IntegerValue
264

@<SCITEGIC>MOL_PROPERTY
Probability
SciTegic.value.DoubleValue
0.00

@<SCITEGIC>MOL_PROPERTY
Sum Probability
SciTegic.value.DoubleValue
99.99

@<SCITEGIC>MOL_PROPERTY
Delta G
SciTegic.value.DoubleValue
5.839

@<SCITEGIC>MOL_PROPERTY
G
SciTegic.value.DoubleValue
39.542

@<SCITEGIC>MOL_PROPERTY
E
SciTegic.value.DoubleValue
1.245

@<SCITEGIC>MOL_PROPERTY
-TS
SciTegic.value.DoubleValue
38.297

@<SCITEGIC>MOL_PROPERTY
U+W
SciTegic.value.DoubleValue
-22.899

@<SCITEGIC>MOL_PROPERTY
U
SciTegic.value.DoubleValue
29.417

@<SCITEGIC>MOL_PROPERTY
W
SciTegic.value.DoubleValue
-52.316

@<SCITEGIC>MOL_PROPERTY
W(PB)
SciTegic.value.DoubleValue
-54.671

@<SCITEGIC>MOL_PROPERTY
W(SA)
SciTegic.value.DoubleValue
2.355

@<SCITEGIC>MOL_PROPERTY
Valence
SciTegic.value.DoubleValue
7.176

@<SCITEGIC>MOL_PROPERTY
Coulomb
SciTegic.value.DoubleValue
21.250

@<SCITEGIC>MOL_PROPERTY
VdW
SciTegic.value.DoubleValue
0.991

@<SCITEGIC>MOL_PROPERTY
VdW6
SciTegic.value.DoubleValue
-11.693

@<SCITEGIC>MOL_PROPERTY
VdW12
SciTegic.value.DoubleValue
12.685

@<SCITEGIC>MOL_PROPERTY
Bond
SciTegic.value.DoubleValue
0.376

@<SCITEGIC>MOL_PROPERTY
Angle
SciTegic.value.DoubleValue
2.905

@<SCITEGIC>MOL_PROPERTY
Pdih
SciTegic.value.DoubleValue
3.896

@<SCITEGIC>MOL_PROPERTY
Idih
SciTegic.value.DoubleValue
0.000

@<SCITEGIC>MOL_PROPERTY
Tether
SciTegic.value.DoubleValue
0.000

@<TRIPOS>MOLECULE
guest-s15_vm2.mol2 : vm2 ligand conformer 187
          29          28           1
SMALL
USER_CHARGES
 
@<TRIPOS>ATOM
       1    C1      21.034183   20.608688   21.022192 C.3        1 MOL1        -0.2426
       2    H1      20.497805   20.962099   20.131898 H          1 MOL1         0.0959
       3    H2      20.918417   21.361694   21.812588 H          1 MOL1         0.0959
       4    H3      22.100787   20.545792   20.770408 H          1 MOL1         0.0959
       5    C2      20.501053   19.235673   21.481749 C.3        1 MOL1        -0.1410
       6    H4      21.083819   18.891339   22.344306 H          1 MOL1         0.0948
       7    H5      20.666287   18.496804   20.685163 H          1 MOL1         0.0948
       8    C3      18.992520   19.293977   21.823294 C.3        1 MOL1        -0.1435
       9    H6      18.775264   20.125966   22.505916 H          1 MOL1         0.0948
      10    H7      18.445083   19.519330   20.897569 H          1 MOL1         0.0948
      11    C4      18.448061   17.965547   22.406830 C.3        1 MOL1        -0.1435
      12    H8      19.042037   17.117640   22.038720 H          1 MOL1         0.0948
      13    H9      17.437444   17.809690   22.004545 H          1 MOL1         0.0948
      14    C5      18.342168   17.907580   23.954914 C.3        1 MOL1        -0.1435
      15    H10     17.644432   18.676862   24.309579 H          1 MOL1         0.0948
      16    H11     17.870345   16.949142   24.212053 H          1 MOL1         0.0948
      17    C6      19.688035   17.990217   24.724474 C.3        1 MOL1        -0.1500
      18    H12     20.442250   17.394978   24.193332 H          1 MOL1         0.0948
      19    H13     19.562630   17.508785   25.703453 H          1 MOL1         0.0948
      20    C7      20.213226   19.426111   24.956076 C.3        1 MOL1         0.1162
      21    H14     20.273192   19.939394   23.993765 H          1 MOL1         0.0910
      22    C8      21.624457   19.386197   25.562814 C.3        1 MOL1        -0.2491
      23    H15     21.623041   18.885612   26.539205 H          1 MOL1         0.0959
      24    H16     22.317074   18.847951   24.903831 H          1 MOL1         0.0959
      25    H17     22.017190   20.401319   25.699462 H          1 MOL1         0.0959
      26    N1      19.292298   20.242010   25.821657 N.4        1 MOL1        -0.5987
      27    H18     19.189205   19.825767   26.750997 H          1 MOL1         0.3605
      28    H19     18.357792   20.313392   25.410626 H          1 MOL1         0.3605
      29    H20     19.645358   21.194583   25.950213 H          1 MOL1         0.3605
@<TRIPOS>BOND
    1     1     2    1
    2     1     3    1
    3     1     4    1
    4     1     5    1
    5     5     6    1
    6     5     7    1
    7     5     8    1
    8     8     9    1
    9     8    10    1
   10     8    11    1
   11    11    12    1
   12    11    13    1
   13    11    14    1
   14    14    15    1
   15    14    16    1
   16    14    17    1
   17    17    18    1
   18    17    19    1
   19    17    20    1
   20    20    21    1
   21    20    22    1
   22    22    23    1
   23    22    24    1
   24    22    25    1
   25    20    26    1
   26    26    27    1
   27    26    28    1
   28    26    29    1
@<TRIPOS>SUBSTRUCTURE
       1 MOL1            1 RESIDUE      1      MOL     
@<SCITEGIC>MOL_PROPERTY
VM2 Rank
SciTegic.value.IntegerValue
187

@<SCITEGIC>MOL_PROPERTY
Conf_Id
SciTegic.value.IntegerValue
695

@<SCITEGIC>MOL_PROPERTY
Probability
SciTegic.value.DoubleValue
0.00

@<SCITEGIC>MOL_PROPERTY
Sum Probability
SciTegic.value.DoubleValue
99.99

@<SCITEGIC>MOL_PROPERTY
Delta G
SciTegic.value.DoubleValue
5.850

@<SCITEGIC>MOL_PROPERTY
G
SciTegic.value.DoubleValue
39.553

@<SCITEGIC>MOL_PROPERTY
E
SciTegic.value.DoubleValue
1.178

@<SCITEGIC>MOL_PROPERTY
-TS
SciTegic.value.DoubleValue
38.375

@<SCITEGIC>MOL_PROPERTY
U+W
SciTegic.value.DoubleValue
-22.966

@<SCITEGIC>MOL_PROPERTY
U
SciTegic.value.DoubleValue
29.616

@<SCITEGIC>MOL_PROPERTY
W
SciTegic.value.DoubleValue
-52.582

@<SCITEGIC>MOL_PROPERTY
W(PB)
SciTegic.value.DoubleValue
-54.955

@<SCITEGIC>MOL_PROPERTY
W(SA)
SciTegic.value.DoubleValue
2.373

@<SCITEGIC>MOL_PROPERTY
Valence
SciTegic.value.DoubleValue
8.185

@<SCITEGIC>MOL_PROPERTY
Coulomb
SciTegic.value.DoubleValue
21.112

@<SCITEGIC>MOL_PROPERTY
VdW
SciTegic.value.DoubleValue
0.319

@<SCITEGIC>MOL_PROPERTY
VdW6
SciTegic.value.DoubleValue
-11.889

@<SCITEGIC>MOL_PROPERTY
VdW12
SciTegic.value.DoubleValue
12.208

@<SCITEGIC>MOL_PROPERTY
Bond
SciTegic.value.DoubleValue
0.321

@<SCITEGIC>MOL_PROPERTY
Angle
SciTegic.value.DoubleValue
2.380

@<SCITEGIC>MOL_PROPERTY
Pdih
SciTegic.value.DoubleValue
5.484

@<SCITEGIC>MOL_PROPERTY
Idih
SciTegic.value.DoubleValue
0.000

@<SCITEGIC>MOL_PROPERTY
Tether
SciTegic.value.DoubleValue
0.000

@<TRIPOS>MOLECULE
guest-s15_vm2.mol2 : vm2 ligand conformer 188
          29          28           1
SMALL
USER_CHARGES
 
@<TRIPOS>ATOM
       1    C1      20.446957   20.646924   20.046287 C.3        1 MOL1        -0.2426
       2    H1      19.455356   21.004910   19.740003 H          1 MOL1         0.0959
       3    H2      20.877263   21.382188   20.738721 H          1 MOL1         0.0959
       4    H3      21.083692   20.612542   19.152747 H          1 MOL1         0.0959
       5    C2      20.354848   19.253615   20.703496 C.3        1 MOL1        -0.1410
       6    H4      21.364061   18.908789   20.968843 H          1 MOL1         0.0948
       7    H5      19.954278   18.533130   19.976636 H          1 MOL1         0.0948
       8    C3      19.462901   19.274207   21.964162 C.3        1 MOL1        -0.1435
       9    H6      19.860427   20.010134   22.671694 H          1 MOL1         0.0948
      10    H7      18.455148   19.616385   21.691068 H          1 MOL1         0.0948
      11    C4      19.369040   17.875768   22.622561 C.3        1 MOL1        -0.1435
      12    H8      20.369793   17.481510   22.844282 H          1 MOL1         0.0948
      13    H9      18.931553   17.185689   21.887750 H          1 MOL1         0.0948
      14    C5      18.489457   17.845580   23.898659 C.3        1 MOL1        -0.1435
      15    H10     17.657433   18.556789   23.802563 H          1 MOL1         0.0948
      16    H11     18.021686   16.853143   23.959801 H          1 MOL1         0.0948
      17    C6      19.241322   18.083082   25.235973 C.3        1 MOL1        -0.1500
      18    H12     20.021810   17.321967   25.368632 H          1 MOL1         0.0948
      19    H13     18.520814   17.904645   26.045161 H          1 MOL1         0.0948
      20    C7      19.837393   19.500906   25.404050 C.3        1 MOL1         0.1162
      21    H14     19.323451   20.172922   24.710846 H          1 MOL1         0.0910
      22    C8      21.346454   19.521725   25.098507 C.3        1 MOL1        -0.2491
      23    H15     21.559701   19.140339   24.094006 H          1 MOL1         0.0959
      24    H16     21.737871   20.544897   25.154513 H          1 MOL1         0.0959
      25    H17     21.902869   18.906180   25.816358 H          1 MOL1         0.0959
      26    N1      19.587628   20.054193   26.780305 N.4        1 MOL1        -0.5987
      27    H18     19.958556   21.004091   26.874485 H          1 MOL1         0.3605
      28    H19     20.033294   19.479515   27.500753 H          1 MOL1         0.3605
      29    H20     18.586735   20.095305   26.993809 H          1 MOL1         0.3605
@<TRIPOS>BOND
    1     1     2    1
    2     1     3    1
    3     1     4    1
    4     1     5    1
    5     5     6    1
    6     5     7    1
    7     5     8    1
    8     8     9    1
    9     8    10    1
   10     8    11    1
   11    11    12    1
   12    11    13    1
   13    11    14    1
   14    14    15    1
   15    14    16    1
   16    14    17    1
   17    17    18    1
   18    17    19    1
   19    17    20    1
   20    20    21    1
   21    20    22    1
   22    22    23    1
   23    22    24    1
   24    22    25    1
   25    20    26    1
   26    26    27    1
   27    26    28    1
   28    26    29    1
@<TRIPOS>SUBSTRUCTURE
       1 MOL1            1 RESIDUE      1      MOL     
@<SCITEGIC>MOL_PROPERTY
VM2 Rank
SciTegic.value.IntegerValue
188

@<SCITEGIC>MOL_PROPERTY
Conf_Id
SciTegic.value.IntegerValue
1307

@<SCITEGIC>MOL_PROPERTY
Probability
SciTegic.value.DoubleValue
0.00

@<SCITEGIC>MOL_PROPERTY
Sum Probability
SciTegic.value.DoubleValue
99.99

@<SCITEGIC>MOL_PROPERTY
Delta G
SciTegic.value.DoubleValue
5.872

@<SCITEGIC>MOL_PROPERTY
G
SciTegic.value.DoubleValue
39.574

@<SCITEGIC>MOL_PROPERTY
E
SciTegic.value.DoubleValue
1.531

@<SCITEGIC>MOL_PROPERTY
-TS
SciTegic.value.DoubleValue
38.044

@<SCITEGIC>MOL_PROPERTY
U+W
SciTegic.value.DoubleValue
-22.614

@<SCITEGIC>MOL_PROPERTY
U
SciTegic.value.DoubleValue
29.858

@<SCITEGIC>MOL_PROPERTY
W
SciTegic.value.DoubleValue
-52.472

@<SCITEGIC>MOL_PROPERTY
W(PB)
SciTegic.value.DoubleValue
-54.908

@<SCITEGIC>MOL_PROPERTY
W(SA)
SciTegic.value.DoubleValue
2.436

@<SCITEGIC>MOL_PROPERTY
Valence
SciTegic.value.DoubleValue
8.678

@<SCITEGIC>MOL_PROPERTY
Coulomb
SciTegic.value.DoubleValue
20.336

@<SCITEGIC>MOL_PROPERTY
VdW
SciTegic.value.DoubleValue
0.844

@<SCITEGIC>MOL_PROPERTY
VdW6
SciTegic.value.DoubleValue
-10.507

@<SCITEGIC>MOL_PROPERTY
VdW12
SciTegic.value.DoubleValue
11.351

@<SCITEGIC>MOL_PROPERTY
Bond
SciTegic.value.DoubleValue
0.280

@<SCITEGIC>MOL_PROPERTY
Angle
SciTegic.value.DoubleValue
2.113

@<SCITEGIC>MOL_PROPERTY
Pdih
SciTegic.value.DoubleValue
6.285

@<SCITEGIC>MOL_PROPERTY
Idih
SciTegic.value.DoubleValue
0.000

@<SCITEGIC>MOL_PROPERTY
Tether
SciTegic.value.DoubleValue
0.000

@<TRIPOS>MOLECULE
guest-s15_vm2.mol2 : vm2 ligand conformer 189
          29          28           1
SMALL
USER_CHARGES
 
@<TRIPOS>ATOM
       1    C1      19.693882   19.669380   19.878228 C.3        1 MOL1        -0.2426
       2    H1      18.871455   19.107300   19.417161 H          1 MOL1         0.0959
       3    H2      19.277539   20.575773   20.334992 H          1 MOL1         0.0959
       4    H3      20.375402   19.985454   19.077967 H          1 MOL1         0.0959
       5    C2      20.442949   18.804818   20.917141 C.3        1 MOL1        -0.1410
       6    H4      21.248489   19.392884   21.376670 H          1 MOL1         0.0948
       7    H5      20.936971   17.973835   20.394723 H          1 MOL1         0.0948
       8    C3      19.516585   18.217927   22.012175 C.3        1 MOL1        -0.1435
       9    H6      18.779374   17.557808   21.535087 H          1 MOL1         0.0948
      10    H7      20.112366   17.569747   22.666734 H          1 MOL1         0.0948
      11    C4      18.759033   19.268641   22.868430 C.3        1 MOL1        -0.1435
      12    H8      18.119134   18.753435   23.593982 H          1 MOL1         0.0948
      13    H9      18.061967   19.818639   22.222523 H          1 MOL1         0.0948
      14    C5      19.660787   20.293983   23.603795 C.3        1 MOL1        -0.1435
      15    H10     20.166898   20.912769   22.851075 H          1 MOL1         0.0948
      16    H11     19.022507   20.995208   24.157040 H          1 MOL1         0.0948
      17    C6      20.744717   19.710861   24.558057 C.3        1 MOL1        -0.1500
      18    H12     21.356666   20.555541   24.900270 H          1 MOL1         0.0948
      19    H13     21.437797   19.069893   23.998874 H          1 MOL1         0.0948
      20    C7      20.254433   18.969929   25.829804 C.3        1 MOL1         0.1162
      21    H14     21.075731   19.016384   26.551599 H          1 MOL1         0.0910
      22    C8      19.975571   17.475727   25.589073 C.3        1 MOL1        -0.2491
      23    H15     20.839597   16.988073   25.121270 H          1 MOL1         0.0959
      24    H16     19.787852   16.966336   26.542163 H          1 MOL1         0.0959
      25    H17     19.102078   17.312499   24.951236 H          1 MOL1         0.0959
      26    N1      19.088045   19.644735   26.497297 N.4        1 MOL1        -0.5987
      27    H18     19.304030   20.617608   26.732637 H          1 MOL1         0.3605
      28    H19     18.825784   19.168915   27.365233 H          1 MOL1         0.3605
      29    H20     18.268007   19.649423   25.885649 H          1 MOL1         0.3605
@<TRIPOS>BOND
    1     1     2    1
    2     1     3    1
    3     1     4    1
    4     1     5    1
    5     5     6    1
    6     5     7    1
    7     5     8    1
    8     8     9    1
    9     8    10    1
   10     8    11    1
   11    11    12    1
   12    11    13    1
   13    11    14    1
   14    14    15    1
   15    14    16    1
   16    14    17    1
   17    17    18    1
   18    17    19    1
   19    17    20    1
   20    20    21    1
   21    20    22    1
   22    22    23    1
   23    22    24    1
   24    22    25    1
   25    20    26    1
   26    26    27    1
   27    26    28    1
   28    26    29    1
@<TRIPOS>SUBSTRUCTURE
       1 MOL1            1 RESIDUE      1      MOL     
@<SCITEGIC>MOL_PROPERTY
VM2 Rank
SciTegic.value.IntegerValue
189

@<SCITEGIC>MOL_PROPERTY
Conf_Id
SciTegic.value.IntegerValue
178

@<SCITEGIC>MOL_PROPERTY
Probability
SciTegic.value.DoubleValue
0.00

@<SCITEGIC>MOL_PROPERTY
Sum Probability
SciTegic.value.DoubleValue
100.00

@<SCITEGIC>MOL_PROPERTY
Delta G
SciTegic.value.DoubleValue
5.943

@<SCITEGIC>MOL_PROPERTY
G
SciTegic.value.DoubleValue
39.645

@<SCITEGIC>MOL_PROPERTY
E
SciTegic.value.DoubleValue
0.660

@<SCITEGIC>MOL_PROPERTY
-TS
SciTegic.value.DoubleValue
38.985

@<SCITEGIC>MOL_PROPERTY
U+W
SciTegic.value.DoubleValue
-23.485

@<SCITEGIC>MOL_PROPERTY
U
SciTegic.value.DoubleValue
29.136

@<SCITEGIC>MOL_PROPERTY
W
SciTegic.value.DoubleValue
-52.620

@<SCITEGIC>MOL_PROPERTY
W(PB)
SciTegic.value.DoubleValue
-54.965

@<SCITEGIC>MOL_PROPERTY
W(SA)
SciTegic.value.DoubleValue
2.344

@<SCITEGIC>MOL_PROPERTY
Valence
SciTegic.value.DoubleValue
7.786

@<SCITEGIC>MOL_PROPERTY
Coulomb
SciTegic.value.DoubleValue
20.543

@<SCITEGIC>MOL_PROPERTY
VdW
SciTegic.value.DoubleValue
0.806

@<SCITEGIC>MOL_PROPERTY
VdW6
SciTegic.value.DoubleValue
-12.839

@<SCITEGIC>MOL_PROPERTY
VdW12
SciTegic.value.DoubleValue
13.645

@<SCITEGIC>MOL_PROPERTY
Bond
SciTegic.value.DoubleValue
0.443

@<SCITEGIC>MOL_PROPERTY
Angle
SciTegic.value.DoubleValue
3.662

@<SCITEGIC>MOL_PROPERTY
Pdih
SciTegic.value.DoubleValue
3.681

@<SCITEGIC>MOL_PROPERTY
Idih
SciTegic.value.DoubleValue
0.000

@<SCITEGIC>MOL_PROPERTY
Tether
SciTegic.value.DoubleValue
0.000

@<TRIPOS>MOLECULE
guest-s15_vm2.mol2 : vm2 ligand conformer 190
          29          28           1
SMALL
USER_CHARGES
 
@<TRIPOS>ATOM
       1    C1      19.010503   19.700098   20.090140 C.3        1 MOL1        -0.2426
       2    H1      19.854330   19.659024   19.389257 H          1 MOL1         0.0959
       3    H2      18.639544   18.678992   20.243552 H          1 MOL1         0.0959
       4    H3      18.205941   20.275510   19.614279 H          1 MOL1         0.0959
       5    C2      19.428437   20.356008   21.425187 C.3        1 MOL1        -0.1410
       6    H4      18.573179   20.363377   22.111614 H          1 MOL1         0.0948
       7    H5      19.670165   21.411548   21.237393 H          1 MOL1         0.0948
       8    C3      20.658646   19.681369   22.086247 C.3        1 MOL1        -0.1435
       9    H6      21.519457   19.805306   21.414808 H          1 MOL1         0.0948
      10    H7      20.924463   20.232912   22.994413 H          1 MOL1         0.0948
      11    C4      20.507759   18.166239   22.398407 C.3        1 MOL1        -0.1435
      12    H8      21.456090   17.785242   22.801339 H          1 MOL1         0.0948
      13    H9      20.367909   17.631933   21.449451 H          1 MOL1         0.0948
      14    C5      19.350132   17.772519   23.356751 C.3        1 MOL1        -0.1435
      15    H10     18.446655   18.357779   23.149843 H          1 MOL1         0.0948
      16    H11     19.071765   16.734774   23.126932 H          1 MOL1         0.0948
      17    C6      19.704339   17.820343   24.868039 C.3        1 MOL1        -0.1500
      18    H12     20.539575   17.132623   25.055738 H          1 MOL1         0.0948
      19    H13     18.853602   17.424751   25.438718 H          1 MOL1         0.0948
      20    C7      20.072257   19.213476   25.420905 C.3        1 MOL1         0.1162
      21    H14     20.958607   19.571084   24.890943 H          1 MOL1         0.0910
      22    C8      20.420350   19.120921   26.914873 C.3        1 MOL1        -0.2491
      23    H15     21.253027   18.425462   27.078361 H          1 MOL1         0.0959
      24    H16     20.723659   20.100655   27.304094 H          1 MOL1         0.0959
      25    H17     19.562233   18.770698   27.502150 H          1 MOL1         0.0959
      26    N1      18.983579   20.225025   25.193451 N.4        1 MOL1        -0.5987
      27    H18     19.252103   21.149613   25.542630 H          1 MOL1         0.3605
      28    H19     18.119688   19.954337   25.671233 H          1 MOL1         0.3605
      29    H20     18.773422   20.316153   24.196131 H          1 MOL1         0.3605
@<TRIPOS>BOND
    1     1     2    1
    2     1     3    1
    3     1     4    1
    4     1     5    1
    5     5     6    1
    6     5     7    1
    7     5     8    1
    8     8     9    1
    9     8    10    1
   10     8    11    1
   11    11    12    1
   12    11    13    1
   13    11    14    1
   14    14    15    1
   15    14    16    1
   16    14    17    1
   17    17    18    1
   18    17    19    1
   19    17    20    1
   20    20    21    1
   21    20    22    1
   22    22    23    1
   23    22    24    1
   24    22    25    1
   25    20    26    1
   26    26    27    1
   27    26    28    1
   28    26    29    1
@<TRIPOS>SUBSTRUCTURE
       1 MOL1            1 RESIDUE      1      MOL     
@<SCITEGIC>MOL_PROPERTY
VM2 Rank
SciTegic.value.IntegerValue
190

@<SCITEGIC>MOL_PROPERTY
Conf_Id
SciTegic.value.IntegerValue
652

@<SCITEGIC>MOL_PROPERTY
Probability
SciTegic.value.DoubleValue
0.00

@<SCITEGIC>MOL_PROPERTY
Sum Probability
SciTegic.value.DoubleValue
100.00

@<SCITEGIC>MOL_PROPERTY
Delta G
SciTegic.value.DoubleValue
6.007

@<SCITEGIC>MOL_PROPERTY
G
SciTegic.value.DoubleValue
39.709

@<SCITEGIC>MOL_PROPERTY
E
SciTegic.value.DoubleValue
1.224

@<SCITEGIC>MOL_PROPERTY
-TS
SciTegic.value.DoubleValue
38.485

@<SCITEGIC>MOL_PROPERTY
U+W
SciTegic.value.DoubleValue
-22.920

@<SCITEGIC>MOL_PROPERTY
U
SciTegic.value.DoubleValue
29.194

@<SCITEGIC>MOL_PROPERTY
W
SciTegic.value.DoubleValue
-52.114

@<SCITEGIC>MOL_PROPERTY
W(PB)
SciTegic.value.DoubleValue
-54.495

@<SCITEGIC>MOL_PROPERTY
W(SA)
SciTegic.value.DoubleValue
2.380

@<SCITEGIC>MOL_PROPERTY
Valence
SciTegic.value.DoubleValue
7.015

@<SCITEGIC>MOL_PROPERTY
Coulomb
SciTegic.value.DoubleValue
21.616

@<SCITEGIC>MOL_PROPERTY
VdW
SciTegic.value.DoubleValue
0.563

@<SCITEGIC>MOL_PROPERTY
VdW6
SciTegic.value.DoubleValue
-12.007

@<SCITEGIC>MOL_PROPERTY
VdW12
SciTegic.value.DoubleValue
12.570

@<SCITEGIC>MOL_PROPERTY
Bond
SciTegic.value.DoubleValue
0.392

@<SCITEGIC>MOL_PROPERTY
Angle
SciTegic.value.DoubleValue
2.976

@<SCITEGIC>MOL_PROPERTY
Pdih
SciTegic.value.DoubleValue
3.646

@<SCITEGIC>MOL_PROPERTY
Idih
SciTegic.value.DoubleValue
0.000

@<SCITEGIC>MOL_PROPERTY
Tether
SciTegic.value.DoubleValue
0.000

@<TRIPOS>MOLECULE
guest-s15_vm2.mol2 : vm2 ligand conformer 191
          29          28           1
SMALL
USER_CHARGES
 
@<TRIPOS>ATOM
       1    C1      20.829125   19.336895   20.025200 C.3        1 MOL1        -0.2426
       2    H1      21.499005   20.001586   19.464546 H          1 MOL1         0.0959
       3    H2      21.419804   18.866803   20.818651 H          1 MOL1         0.0959
       4    H3      20.493113   18.548098   19.339721 H          1 MOL1         0.0959
       5    C2      19.626469   20.131260   20.585601 C.3        1 MOL1        -0.1410
       6    H4      19.119989   20.616449   19.739471 H          1 MOL1         0.0948
       7    H5      19.976549   20.945443   21.235250 H          1 MOL1         0.0948
       8    C3      18.593887   19.249791   21.334827 C.3        1 MOL1        -0.1435
       9    H6      17.597054   19.682382   21.171754 H          1 MOL1         0.0948
      10    H7      18.556107   18.245915   20.889941 H          1 MOL1         0.0948
      11    C4      18.811058   19.149620   22.866763 C.3        1 MOL1        -0.1435
      12    H8      17.968864   18.589066   23.295395 H          1 MOL1         0.0948
      13    H9      18.769870   20.160499   23.290576 H          1 MOL1         0.0948
      14    C5      20.136471   18.462538   23.274925 C.3        1 MOL1        -0.1435
      15    H10     20.276072   17.568636   22.651612 H          1 MOL1         0.0948
      16    H11     20.980053   19.130587   23.056832 H          1 MOL1         0.0948
      17    C6      20.210826   18.024717   24.761466 C.3        1 MOL1        -0.1500
      18    H12     21.132693   17.439573   24.879124 H          1 MOL1         0.0948
      19    H13     19.387848   17.336855   24.996330 H          1 MOL1         0.0948
      20    C7      20.234981   19.188653   25.780296 C.3        1 MOL1         0.1162
      21    H14     20.884278   19.977324   25.387953 H          1 MOL1         0.0910
      22    C8      20.814003   18.711896   27.122539 C.3        1 MOL1        -0.2491
      23    H15     20.205466   17.906931   27.553517 H          1 MOL1         0.0959
      24    H16     21.837246   18.336796   26.995853 H          1 MOL1         0.0959
      25    H17     20.851252   19.536812   27.844764 H          1 MOL1         0.0959
      26    N1      18.879180   19.800629   26.002382 N.4        1 MOL1        -0.5987
      27    H18     18.225918   19.120808   26.400618 H          1 MOL1         0.3605
      28    H19     18.475229   20.140168   25.126616 H          1 MOL1         0.3605
      29    H20     18.928297   20.593432   26.648742 H          1 MOL1         0.3605
@<TRIPOS>BOND
    1     1     2    1
    2     1     3    1
    3     1     4    1
    4     1     5    1
    5     5     6    1
    6     5     7    1
    7     5     8    1
    8     8     9    1
    9     8    10    1
   10     8    11    1
   11    11    12    1
   12    11    13    1
   13    11    14    1
   14    14    15    1
   15    14    16    1
   16    14    17    1
   17    17    18    1
   18    17    19    1
   19    17    20    1
   20    20    21    1
   21    20    22    1
   22    22    23    1
   23    22    24    1
   24    22    25    1
   25    20    26    1
   26    26    27    1
   27    26    28    1
   28    26    29    1
@<TRIPOS>SUBSTRUCTURE
       1 MOL1            1 RESIDUE      1      MOL     
@<SCITEGIC>MOL_PROPERTY
VM2 Rank
SciTegic.value.IntegerValue
191

@<SCITEGIC>MOL_PROPERTY
Conf_Id
SciTegic.value.IntegerValue
1322

@<SCITEGIC>MOL_PROPERTY
Probability
SciTegic.value.DoubleValue
0.00

@<SCITEGIC>MOL_PROPERTY
Sum Probability
SciTegic.value.DoubleValue
100.00

@<SCITEGIC>MOL_PROPERTY
Delta G
SciTegic.value.DoubleValue
6.079

@<SCITEGIC>MOL_PROPERTY
G
SciTegic.value.DoubleValue
39.781

@<SCITEGIC>MOL_PROPERTY
E
SciTegic.value.DoubleValue
2.059

@<SCITEGIC>MOL_PROPERTY
-TS
SciTegic.value.DoubleValue
37.722

@<SCITEGIC>MOL_PROPERTY
U+W
SciTegic.value.DoubleValue
-22.086

@<SCITEGIC>MOL_PROPERTY
U
SciTegic.value.DoubleValue
30.184

@<SCITEGIC>MOL_PROPERTY
W
SciTegic.value.DoubleValue
-52.270

@<SCITEGIC>MOL_PROPERTY
W(PB)
SciTegic.value.DoubleValue
-54.706

@<SCITEGIC>MOL_PROPERTY
W(SA)
SciTegic.value.DoubleValue
2.436

@<SCITEGIC>MOL_PROPERTY
Valence
SciTegic.value.DoubleValue
7.816

@<SCITEGIC>MOL_PROPERTY
Coulomb
SciTegic.value.DoubleValue
21.246

@<SCITEGIC>MOL_PROPERTY
VdW
SciTegic.value.DoubleValue
1.122

@<SCITEGIC>MOL_PROPERTY
VdW6
SciTegic.value.DoubleValue
-10.606

@<SCITEGIC>MOL_PROPERTY
VdW12
SciTegic.value.DoubleValue
11.728

@<SCITEGIC>MOL_PROPERTY
Bond
SciTegic.value.DoubleValue
0.328

@<SCITEGIC>MOL_PROPERTY
Angle
SciTegic.value.DoubleValue
2.364

@<SCITEGIC>MOL_PROPERTY
Pdih
SciTegic.value.DoubleValue
5.124

@<SCITEGIC>MOL_PROPERTY
Idih
SciTegic.value.DoubleValue
0.000

@<SCITEGIC>MOL_PROPERTY
Tether
SciTegic.value.DoubleValue
0.000

@<TRIPOS>MOLECULE
guest-s15_vm2.mol2 : vm2 ligand conformer 192
          29          28           1
SMALL
USER_CHARGES
 
@<TRIPOS>ATOM
       1    C1      19.383771   18.379179   19.630226 C.3        1 MOL1        -0.2426
       2    H1      20.281749   18.718887   19.097809 H          1 MOL1         0.0959
       3    H2      19.270577   17.302667   19.447707 H          1 MOL1         0.0959
       4    H3      18.514359   18.888032   19.193876 H          1 MOL1         0.0959
       5    C2      19.494152   18.666695   21.142475 C.3        1 MOL1        -0.1410
       6    H4      20.350623   18.111918   21.548158 H          1 MOL1         0.0948
       7    H5      18.595287   18.290967   21.650648 H          1 MOL1         0.0948
       8    C3      19.661385   20.177430   21.424778 C.3        1 MOL1        -0.1435
       9    H6      20.589494   20.536554   20.959069 H          1 MOL1         0.0948
      10    H7      18.843181   20.723951   20.935754 H          1 MOL1         0.0948
      11    C4      19.663601   20.545814   22.930643 C.3        1 MOL1        -0.1435
      12    H8      18.700819   20.267148   23.375602 H          1 MOL1         0.0948
      13    H9      19.722418   21.640583   23.004161 H          1 MOL1         0.0948
      14    C5      20.847485   19.940971   23.733881 C.3        1 MOL1        -0.1435
      15    H10     21.699980   19.794275   23.056386 H          1 MOL1         0.0948
      16    H11     21.194612   20.670703   24.478564 H          1 MOL1         0.0948
      17    C6      20.527795   18.601950   24.453082 C.3        1 MOL1        -0.1500
      18    H12     21.454545   18.014922   24.501925 H          1 MOL1         0.0948
      19    H13     19.820113   18.003044   23.867469 H          1 MOL1         0.0948
      20    C7      20.001970   18.778338   25.896392 C.3        1 MOL1         0.1162
      21    H14     20.744385   19.352226   26.459453 H          1 MOL1         0.0910
      22    C8      19.837735   17.409240   26.575357 C.3        1 MOL1        -0.2491
      23    H15     19.506460   17.528249   27.614352 H          1 MOL1         0.0959
      24    H16     19.098903   16.791521   26.049560 H          1 MOL1         0.0959
      25    H17     20.789941   16.864437   26.590377 H          1 MOL1         0.0959
      26    N1      18.718106   19.556383   25.967166 N.4        1 MOL1        -0.5987
      27    H18     18.418047   19.696412   26.936247 H          1 MOL1         0.3605
      28    H19     17.961878   19.071199   25.477395 H          1 MOL1         0.3605
      29    H20     18.824420   20.480446   25.539317 H          1 MOL1         0.3605
@<TRIPOS>BOND
    1     1     2    1
    2     1     3    1
    3     1     4    1
    4     1     5    1
    5     5     6    1
    6     5     7    1
    7     5     8    1
    8     8     9    1
    9     8    10    1
   10     8    11    1
   11    11    12    1
   12    11    13    1
   13    11    14    1
   14    14    15    1
   15    14    16    1
   16    14    17    1
   17    17    18    1
   18    17    19    1
   19    17    20    1
   20    20    21    1
   21    20    22    1
   22    22    23    1
   23    22    24    1
   24    22    25    1
   25    20    26    1
   26    26    27    1
   27    26    28    1
   28    26    29    1
@<TRIPOS>SUBSTRUCTURE
       1 MOL1            1 RESIDUE      1      MOL     
@<SCITEGIC>MOL_PROPERTY
VM2 Rank
SciTegic.value.IntegerValue
192

@<SCITEGIC>MOL_PROPERTY
Conf_Id
SciTegic.value.IntegerValue
689

@<SCITEGIC>MOL_PROPERTY
Probability
SciTegic.value.DoubleValue
0.00

@<SCITEGIC>MOL_PROPERTY
Sum Probability
SciTegic.value.DoubleValue
100.00

@<SCITEGIC>MOL_PROPERTY
Delta G
SciTegic.value.DoubleValue
6.114

@<SCITEGIC>MOL_PROPERTY
G
SciTegic.value.DoubleValue
39.816

@<SCITEGIC>MOL_PROPERTY
E
SciTegic.value.DoubleValue
1.853

@<SCITEGIC>MOL_PROPERTY
-TS
SciTegic.value.DoubleValue
37.963

@<SCITEGIC>MOL_PROPERTY
U+W
SciTegic.value.DoubleValue
-22.292

@<SCITEGIC>MOL_PROPERTY
U
SciTegic.value.DoubleValue
30.054

@<SCITEGIC>MOL_PROPERTY
W
SciTegic.value.DoubleValue
-52.345

@<SCITEGIC>MOL_PROPERTY
W(PB)
SciTegic.value.DoubleValue
-54.788

@<SCITEGIC>MOL_PROPERTY
W(SA)
SciTegic.value.DoubleValue
2.442

@<SCITEGIC>MOL_PROPERTY
Valence
SciTegic.value.DoubleValue
8.013

@<SCITEGIC>MOL_PROPERTY
Coulomb
SciTegic.value.DoubleValue
20.944

@<SCITEGIC>MOL_PROPERTY
VdW
SciTegic.value.DoubleValue
1.097

@<SCITEGIC>MOL_PROPERTY
VdW6
SciTegic.value.DoubleValue
-10.535

@<SCITEGIC>MOL_PROPERTY
VdW12
SciTegic.value.DoubleValue
11.631

@<SCITEGIC>MOL_PROPERTY
Bond
SciTegic.value.DoubleValue
0.334

@<SCITEGIC>MOL_PROPERTY
Angle
SciTegic.value.DoubleValue
1.816

@<SCITEGIC>MOL_PROPERTY
Pdih
SciTegic.value.DoubleValue
5.864

@<SCITEGIC>MOL_PROPERTY
Idih
SciTegic.value.DoubleValue
0.000

@<SCITEGIC>MOL_PROPERTY
Tether
SciTegic.value.DoubleValue
0.000

@<TRIPOS>MOLECULE
guest-s15_vm2.mol2 : vm2 ligand conformer 193
          29          28           1
SMALL
USER_CHARGES
 
@<TRIPOS>ATOM
       1    C1      18.701166   20.718430   20.917736 C.3        1 MOL1        -0.2426
       2    H1      19.494847   21.338914   21.351490 H          1 MOL1         0.0959
       3    H2      18.342258   21.230137   20.015298 H          1 MOL1         0.0959
       4    H3      17.866175   20.673343   21.628614 H          1 MOL1         0.0959
       5    C2      19.210980   19.302387   20.564992 C.3        1 MOL1        -0.1410
       6    H4      20.054146   19.375480   19.863907 H          1 MOL1         0.0948
       7    H5      18.414865   18.763323   20.032599 H          1 MOL1         0.0948
       8    C3      19.628429   18.474259   21.803169 C.3        1 MOL1        -0.1435
       9    H6      18.778039   18.408426   22.492549 H          1 MOL1         0.0948
      10    H7      19.839210   17.445101   21.481218 H          1 MOL1         0.0948
      11    C4      20.881260   19.036941   22.521667 C.3        1 MOL1        -0.1435
      12    H8      20.721863   20.071529   22.844773 H          1 MOL1         0.0948
      13    H9      21.707004   19.082468   21.798187 H          1 MOL1         0.0948
      14    C5      21.341598   18.177430   23.726233 C.3        1 MOL1        -0.1435
      15    H10     21.636302   17.185747   23.356146 H          1 MOL1         0.0948
      16    H11     22.255973   18.622105   24.142833 H          1 MOL1         0.0948
      17    C6      20.313373   17.987434   24.875660 C.3        1 MOL1        -0.1500
      18    H12     20.786929   17.336556   25.622721 H          1 MOL1         0.0948
      19    H13     19.433369   17.435115   24.522679 H          1 MOL1         0.0948
      20    C7      19.875246   19.297914   25.571768 C.3        1 MOL1         0.1162
      21    H14     20.750914   19.948058   25.661262 H          1 MOL1         0.0910
      22    C8      19.345104   19.005669   26.985011 C.3        1 MOL1        -0.2491
      23    H15     18.473389   18.340083   26.951978 H          1 MOL1         0.0959
      24    H16     20.117144   18.527836   27.600957 H          1 MOL1         0.0959
      25    H17     19.048052   19.934048   27.488364 H          1 MOL1         0.0959
      26    N1      18.838843   20.055536   24.787765 N.4        1 MOL1        -0.5987
      27    H18     18.639029   20.965666   25.213254 H          1 MOL1         0.3605
      28    H19     17.957440   19.536925   24.744964 H          1 MOL1         0.3605
      29    H20     19.150026   20.217253   23.825656 H          1 MOL1         0.3605
@<TRIPOS>BOND
    1     1     2    1
    2     1     3    1
    3     1     4    1
    4     1     5    1
    5     5     6    1
    6     5     7    1
    7     5     8    1
    8     8     9    1
    9     8    10    1
   10     8    11    1
   11    11    12    1
   12    11    13    1
   13    11    14    1
   14    14    15    1
   15    14    16    1
   16    14    17    1
   17    17    18    1
   18    17    19    1
   19    17    20    1
   20    20    21    1
   21    20    22    1
   22    22    23    1
   23    22    24    1
   24    22    25    1
   25    20    26    1
   26    26    27    1
   27    26    28    1
   28    26    29    1
@<TRIPOS>SUBSTRUCTURE
       1 MOL1            1 RESIDUE      1      MOL     
@<SCITEGIC>MOL_PROPERTY
VM2 Rank
SciTegic.value.IntegerValue
193

@<SCITEGIC>MOL_PROPERTY
Conf_Id
SciTegic.value.IntegerValue
1355

@<SCITEGIC>MOL_PROPERTY
Probability
SciTegic.value.DoubleValue
0.00

@<SCITEGIC>MOL_PROPERTY
Sum Probability
SciTegic.value.DoubleValue
100.00

@<SCITEGIC>MOL_PROPERTY
Delta G
SciTegic.value.DoubleValue
6.249

@<SCITEGIC>MOL_PROPERTY
G
SciTegic.value.DoubleValue
39.951

@<SCITEGIC>MOL_PROPERTY
E
SciTegic.value.DoubleValue
1.609

@<SCITEGIC>MOL_PROPERTY
-TS
SciTegic.value.DoubleValue
38.342

@<SCITEGIC>MOL_PROPERTY
U+W
SciTegic.value.DoubleValue
-22.535

@<SCITEGIC>MOL_PROPERTY
U
SciTegic.value.DoubleValue
28.370

@<SCITEGIC>MOL_PROPERTY
W
SciTegic.value.DoubleValue
-50.905

@<SCITEGIC>MOL_PROPERTY
W(PB)
SciTegic.value.DoubleValue
-53.306

@<SCITEGIC>MOL_PROPERTY
W(SA)
SciTegic.value.DoubleValue
2.400

@<SCITEGIC>MOL_PROPERTY
Valence
SciTegic.value.DoubleValue
5.939

@<SCITEGIC>MOL_PROPERTY
Coulomb
SciTegic.value.DoubleValue
21.711

@<SCITEGIC>MOL_PROPERTY
VdW
SciTegic.value.DoubleValue
0.720

@<SCITEGIC>MOL_PROPERTY
VdW6
SciTegic.value.DoubleValue
-11.570

@<SCITEGIC>MOL_PROPERTY
VdW12
SciTegic.value.DoubleValue
12.290

@<SCITEGIC>MOL_PROPERTY
Bond
SciTegic.value.DoubleValue
0.321

@<SCITEGIC>MOL_PROPERTY
Angle
SciTegic.value.DoubleValue
2.349

@<SCITEGIC>MOL_PROPERTY
Pdih
SciTegic.value.DoubleValue
3.270

@<SCITEGIC>MOL_PROPERTY
Idih
SciTegic.value.DoubleValue
0.000

@<SCITEGIC>MOL_PROPERTY
Tether
SciTegic.value.DoubleValue
0.000

@<TRIPOS>MOLECULE
guest-s15_vm2.mol2 : vm2 ligand conformer 194
          29          28           1
SMALL
USER_CHARGES
 
@<TRIPOS>ATOM
       1    C1      21.292785   19.937173   21.335124 C.3        1 MOL1        -0.2426
       2    H1      22.342124   19.647176   21.195226 H          1 MOL1         0.0959
       3    H2      21.124341   20.861024   20.766737 H          1 MOL1         0.0959
       4    H3      21.150416   20.165591   22.396403 H          1 MOL1         0.0959
       5    C2      20.351131   18.811506   20.847052 C.3        1 MOL1        -0.1410
       6    H4      20.576202   17.866358   21.359045 H          1 MOL1         0.0948
       7    H5      20.567119   18.633026   19.784347 H          1 MOL1         0.0948
       8    C3      18.847145   19.157826   20.988069 C.3        1 MOL1        -0.1435
       9    H6      18.692699   20.236898   20.850960 H          1 MOL1         0.0948
      10    H7      18.315200   18.678789   20.154442 H          1 MOL1         0.0948
      11    C4      18.163630   18.683735   22.299518 C.3        1 MOL1        -0.1435
      12    H8      18.247403   17.592467   22.395727 H          1 MOL1         0.0948
      13    H9      17.088476   18.885565   22.195857 H          1 MOL1         0.0948
      14    C5      18.651387   19.377289   23.596739 C.3        1 MOL1        -0.1435
      15    H10     19.010900   20.389839   23.369519 H          1 MOL1         0.0948
      16    H11     17.785909   19.506237   24.260318 H          1 MOL1         0.0948
      17    C6      19.733528   18.564846   24.354029 C.3        1 MOL1        -0.1500
      18    H12     20.547796   18.303364   23.669290 H          1 MOL1         0.0948
      19    H13     19.305520   17.613691   24.697370 H          1 MOL1         0.0948
      20    C7      20.325176   19.330584   25.556680 C.3        1 MOL1         0.1162
      21    H14     20.720631   20.284502   25.194371 H          1 MOL1         0.0910
      22    C8      21.482486   18.534644   26.180445 C.3        1 MOL1        -0.2491
      23    H15     21.931045   19.089874   27.013453 H          1 MOL1         0.0959
      24    H16     21.137474   17.565408   26.561864 H          1 MOL1         0.0959
      25    H17     22.271542   18.349619   25.440871 H          1 MOL1         0.0959
      26    N1      19.288732   19.658397   26.596343 N.4        1 MOL1        -0.5987
      27    H18     19.693757   20.184809   27.375731 H          1 MOL1         0.3605
      28    H19     18.868924   18.809597   26.984659 H          1 MOL1         0.3605
      29    H20     18.532242   20.225185   26.203665 H          1 MOL1         0.3605
@<TRIPOS>BOND
    1     1     2    1
    2     1     3    1
    3     1     4    1
    4     1     5    1
    5     5     6    1
    6     5     7    1
    7     5     8    1
    8     8     9    1
    9     8    10    1
   10     8    11    1
   11    11    12    1
   12    11    13    1
   13    11    14    1
   14    14    15    1
   15    14    16    1
   16    14    17    1
   17    17    18    1
   18    17    19    1
   19    17    20    1
   20    20    21    1
   21    20    22    1
   22    22    23    1
   23    22    24    1
   24    22    25    1
   25    20    26    1
   26    26    27    1
   27    26    28    1
   28    26    29    1
@<TRIPOS>SUBSTRUCTURE
       1 MOL1            1 RESIDUE      1      MOL     
@<SCITEGIC>MOL_PROPERTY
VM2 Rank
SciTegic.value.IntegerValue
194

@<SCITEGIC>MOL_PROPERTY
Conf_Id
SciTegic.value.IntegerValue
1294

@<SCITEGIC>MOL_PROPERTY
Probability
SciTegic.value.DoubleValue
0.00

@<SCITEGIC>MOL_PROPERTY
Sum Probability
SciTegic.value.DoubleValue
100.00

@<SCITEGIC>MOL_PROPERTY
Delta G
SciTegic.value.DoubleValue
6.256

@<SCITEGIC>MOL_PROPERTY
G
SciTegic.value.DoubleValue
39.958

@<SCITEGIC>MOL_PROPERTY
E
SciTegic.value.DoubleValue
1.673

@<SCITEGIC>MOL_PROPERTY
-TS
SciTegic.value.DoubleValue
38.285

@<SCITEGIC>MOL_PROPERTY
U+W
SciTegic.value.DoubleValue
-22.471

@<SCITEGIC>MOL_PROPERTY
U
SciTegic.value.DoubleValue
30.008

@<SCITEGIC>MOL_PROPERTY
W
SciTegic.value.DoubleValue
-52.480

@<SCITEGIC>MOL_PROPERTY
W(PB)
SciTegic.value.DoubleValue
-54.891

@<SCITEGIC>MOL_PROPERTY
W(SA)
SciTegic.value.DoubleValue
2.411

@<SCITEGIC>MOL_PROPERTY
Valence
SciTegic.value.DoubleValue
8.778

@<SCITEGIC>MOL_PROPERTY
Coulomb
SciTegic.value.DoubleValue
20.386

@<SCITEGIC>MOL_PROPERTY
VdW
SciTegic.value.DoubleValue
0.844

@<SCITEGIC>MOL_PROPERTY
VdW6
SciTegic.value.DoubleValue
-10.989

@<SCITEGIC>MOL_PROPERTY
VdW12
SciTegic.value.DoubleValue
11.834

@<SCITEGIC>MOL_PROPERTY
Bond
SciTegic.value.DoubleValue
0.330

@<SCITEGIC>MOL_PROPERTY
Angle
SciTegic.value.DoubleValue
2.382

@<SCITEGIC>MOL_PROPERTY
Pdih
SciTegic.value.DoubleValue
6.067

@<SCITEGIC>MOL_PROPERTY
Idih
SciTegic.value.DoubleValue
0.000

@<SCITEGIC>MOL_PROPERTY
Tether
SciTegic.value.DoubleValue
0.000

@<TRIPOS>MOLECULE
guest-s15_vm2.mol2 : vm2 ligand conformer 195
          29          28           1
SMALL
USER_CHARGES
 
@<TRIPOS>ATOM
       1    C1      18.080943   19.761220   20.936372 C.3        1 MOL1        -0.2426
       2    H1      17.507679   19.909662   20.012051 H          1 MOL1         0.0959
       3    H2      17.681048   18.866580   21.429059 H          1 MOL1         0.0959
       4    H3      17.897172   20.627591   21.584599 H          1 MOL1         0.0959
       5    C2      19.586057   19.612864   20.616825 C.3        1 MOL1        -0.1410
       6    H4      19.908097   20.480418   20.024002 H          1 MOL1         0.0948
       7    H5      19.745164   18.730532   19.981268 H          1 MOL1         0.0948
       8    C3      20.475201   19.517250   21.879211 C.3        1 MOL1        -0.1435
       9    H6      21.528596   19.554742   21.569174 H          1 MOL1         0.0948
      10    H7      20.309757   20.404868   22.501569 H          1 MOL1         0.0948
      11    C4      20.242106   18.220636   22.695400 C.3        1 MOL1        -0.1435
      12    H8      20.415307   17.358024   22.037290 H          1 MOL1         0.0948
      13    H9      19.197763   18.138901   23.014760 H          1 MOL1         0.0948
      14    C5      21.178027   18.087812   23.923504 C.3        1 MOL1        -0.1435
      15    H10     21.002939   17.112948   24.397890 H          1 MOL1         0.0948
      16    H11     22.216350   18.052163   23.566193 H          1 MOL1         0.0948
      17    C6      21.071044   19.209888   24.997948 C.3        1 MOL1        -0.1500
      18    H12     21.406008   20.164606   24.573553 H          1 MOL1         0.0948
      19    H13     21.797536   18.979894   25.788351 H          1 MOL1         0.0948
      20    C7      19.693154   19.412071   25.679458 C.3        1 MOL1         0.1162
      21    H14     19.857222   20.068454   26.539634 H          1 MOL1         0.0910
      22    C8      19.104393   18.095633   26.215856 C.3        1 MOL1        -0.2491
      23    H15     19.827685   17.581183   26.860624 H          1 MOL1         0.0959
      24    H16     18.206420   18.292285   26.814231 H          1 MOL1         0.0959
      25    H17     18.823394   17.415493   25.403086 H          1 MOL1         0.0959
      26    N1      18.705075   20.138624   24.809425 N.4        1 MOL1        -0.5987
      27    H18     19.042186   21.074343   24.565675 H          1 MOL1         0.3605
      28    H19     17.803309   20.251153   25.281893 H          1 MOL1         0.3605
      29    H20     18.543246   19.631337   23.935775 H          1 MOL1         0.3605
@<TRIPOS>BOND
    1     1     2    1
    2     1     3    1
    3     1     4    1
    4     1     5    1
    5     5     6    1
    6     5     7    1
    7     5     8    1
    8     8     9    1
    9     8    10    1
   10     8    11    1
   11    11    12    1
   12    11    13    1
   13    11    14    1
   14    14    15    1
   15    14    16    1
   16    14    17    1
   17    17    18    1
   18    17    19    1
   19    17    20    1
   20    20    21    1
   21    20    22    1
   22    22    23    1
   23    22    24    1
   24    22    25    1
   25    20    26    1
   26    26    27    1
   27    26    28    1
   28    26    29    1
@<TRIPOS>SUBSTRUCTURE
       1 MOL1            1 RESIDUE      1      MOL     
@<SCITEGIC>MOL_PROPERTY
VM2 Rank
SciTegic.value.IntegerValue
195

@<SCITEGIC>MOL_PROPERTY
Conf_Id
SciTegic.value.IntegerValue
282

@<SCITEGIC>MOL_PROPERTY
Probability
SciTegic.value.DoubleValue
0.00

@<SCITEGIC>MOL_PROPERTY
Sum Probability
SciTegic.value.DoubleValue
100.00

@<SCITEGIC>MOL_PROPERTY
Delta G
SciTegic.value.DoubleValue
6.289

@<SCITEGIC>MOL_PROPERTY
G
SciTegic.value.DoubleValue
39.991

@<SCITEGIC>MOL_PROPERTY
E
SciTegic.value.DoubleValue
1.248

@<SCITEGIC>MOL_PROPERTY
-TS
SciTegic.value.DoubleValue
38.744

@<SCITEGIC>MOL_PROPERTY
U+W
SciTegic.value.DoubleValue
-22.897

@<SCITEGIC>MOL_PROPERTY
U
SciTegic.value.DoubleValue
28.640

@<SCITEGIC>MOL_PROPERTY
W
SciTegic.value.DoubleValue
-51.537

@<SCITEGIC>MOL_PROPERTY
W(PB)
SciTegic.value.DoubleValue
-53.873

@<SCITEGIC>MOL_PROPERTY
W(SA)
SciTegic.value.DoubleValue
2.335

@<SCITEGIC>MOL_PROPERTY
Valence
SciTegic.value.DoubleValue
6.059

@<SCITEGIC>MOL_PROPERTY
Coulomb
SciTegic.value.DoubleValue
21.999

@<SCITEGIC>MOL_PROPERTY
VdW
SciTegic.value.DoubleValue
0.582

@<SCITEGIC>MOL_PROPERTY
VdW6
SciTegic.value.DoubleValue
-12.550

@<SCITEGIC>MOL_PROPERTY
VdW12
SciTegic.value.DoubleValue
13.132

@<SCITEGIC>MOL_PROPERTY
Bond
SciTegic.value.DoubleValue
0.383

@<SCITEGIC>MOL_PROPERTY
Angle
SciTegic.value.DoubleValue
2.850

@<SCITEGIC>MOL_PROPERTY
Pdih
SciTegic.value.DoubleValue
2.826

@<SCITEGIC>MOL_PROPERTY
Idih
SciTegic.value.DoubleValue
0.000

@<SCITEGIC>MOL_PROPERTY
Tether
SciTegic.value.DoubleValue
0.000

@<TRIPOS>MOLECULE
guest-s15_vm2.mol2 : vm2 ligand conformer 196
          29          28           1
SMALL
USER_CHARGES
 
@<TRIPOS>ATOM
       1    C1      20.555423   18.524573   20.164435 C.3        1 MOL1        -0.2426
       2    H1      20.826987   19.351185   19.495134 H          1 MOL1         0.0959
       3    H2      21.312438   18.466423   20.953843 H          1 MOL1         0.0959
       4    H3      20.610480   17.594657   19.583831 H          1 MOL1         0.0959
       5    C2      19.131542   18.721144   20.734837 C.3        1 MOL1        -0.1410
       6    H4      18.848907   17.862446   21.359530 H          1 MOL1         0.0948
       7    H5      18.427900   18.725209   19.890607 H          1 MOL1         0.0948
       8    C3      18.957953   20.043669   21.525525 C.3        1 MOL1        -0.1435
       9    H6      19.615688   20.822128   21.115037 H          1 MOL1         0.0948
      10    H7      17.933680   20.405991   21.361344 H          1 MOL1         0.0948
      11    C4      19.166627   19.918717   23.056641 C.3        1 MOL1        -0.1435
      12    H8      18.442252   19.194943   23.449761 H          1 MOL1         0.0948
      13    H9      18.928378   20.888312   23.515072 H          1 MOL1         0.0948
      14    C5      20.599359   19.503685   23.468953 C.3        1 MOL1        -0.1435
      15    H10     20.781259   18.460746   23.181165 H          1 MOL1         0.0948
      16    H11     21.317625   20.107025   22.897166 H          1 MOL1         0.0948
      17    C6      20.917310   19.689579   24.979377 C.3        1 MOL1        -0.1500
      18    H12     20.843904   20.754125   25.237465 H          1 MOL1         0.0948
      19    H13     21.971788   19.425296   25.133414 H          1 MOL1         0.0948
      20    C7      20.077269   18.867550   25.990052 C.3        1 MOL1         0.1162
      21    H14     20.570755   18.963202   26.962166 H          1 MOL1         0.0910
      22    C8      20.038030   17.369563   25.641123 C.3        1 MOL1        -0.2491
      23    H15     19.563302   16.799398   26.448983 H          1 MOL1         0.0959
      24    H16     19.471428   17.182750   24.721036 H          1 MOL1         0.0959
      25    H17     21.052895   16.975139   25.506888 H          1 MOL1         0.0959
      26    N1      18.692487   19.417520   26.193057 N.4        1 MOL1        -0.5987
      27    H18     18.719093   20.394987   26.497247 H          1 MOL1         0.3605
      28    H19     18.181814   18.889117   26.906321 H          1 MOL1         0.3605
      29    H20     18.147741   19.377643   25.329185 H          1 MOL1         0.3605
@<TRIPOS>BOND
    1     1     2    1
    2     1     3    1
    3     1     4    1
    4     1     5    1
    5     5     6    1
    6     5     7    1
    7     5     8    1
    8     8     9    1
    9     8    10    1
   10     8    11    1
   11    11    12    1
   12    11    13    1
   13    11    14    1
   14    14    15    1
   15    14    16    1
   16    14    17    1
   17    17    18    1
   18    17    19    1
   19    17    20    1
   20    20    21    1
   21    20    22    1
   22    22    23    1
   23    22    24    1
   24    22    25    1
   25    20    26    1
   26    26    27    1
   27    26    28    1
   28    26    29    1
@<TRIPOS>SUBSTRUCTURE
       1 MOL1            1 RESIDUE      1      MOL     
@<SCITEGIC>MOL_PROPERTY
VM2 Rank
SciTegic.value.IntegerValue
196

@<SCITEGIC>MOL_PROPERTY
Conf_Id
SciTegic.value.IntegerValue
1641

@<SCITEGIC>MOL_PROPERTY
Probability
SciTegic.value.DoubleValue
0.00

@<SCITEGIC>MOL_PROPERTY
Sum Probability
SciTegic.value.DoubleValue
100.00

@<SCITEGIC>MOL_PROPERTY
Delta G
SciTegic.value.DoubleValue
6.381

@<SCITEGIC>MOL_PROPERTY
G
SciTegic.value.DoubleValue
40.083

@<SCITEGIC>MOL_PROPERTY
E
SciTegic.value.DoubleValue
1.766

@<SCITEGIC>MOL_PROPERTY
-TS
SciTegic.value.DoubleValue
38.318

@<SCITEGIC>MOL_PROPERTY
U+W
SciTegic.value.DoubleValue
-22.379

@<SCITEGIC>MOL_PROPERTY
U
SciTegic.value.DoubleValue
30.296

@<SCITEGIC>MOL_PROPERTY
W
SciTegic.value.DoubleValue
-52.675

@<SCITEGIC>MOL_PROPERTY
W(PB)
SciTegic.value.DoubleValue
-55.072

@<SCITEGIC>MOL_PROPERTY
W(SA)
SciTegic.value.DoubleValue
2.397

@<SCITEGIC>MOL_PROPERTY
Valence
SciTegic.value.DoubleValue
7.940

@<SCITEGIC>MOL_PROPERTY
Coulomb
SciTegic.value.DoubleValue
21.395

@<SCITEGIC>MOL_PROPERTY
VdW
SciTegic.value.DoubleValue
0.961

@<SCITEGIC>MOL_PROPERTY
VdW6
SciTegic.value.DoubleValue
-11.719

@<SCITEGIC>MOL_PROPERTY
VdW12
SciTegic.value.DoubleValue
12.679

@<SCITEGIC>MOL_PROPERTY
Bond
SciTegic.value.DoubleValue
0.376

@<SCITEGIC>MOL_PROPERTY
Angle
SciTegic.value.DoubleValue
2.869

@<SCITEGIC>MOL_PROPERTY
Pdih
SciTegic.value.DoubleValue
4.695

@<SCITEGIC>MOL_PROPERTY
Idih
SciTegic.value.DoubleValue
0.000

@<SCITEGIC>MOL_PROPERTY
Tether
SciTegic.value.DoubleValue
0.000

@<TRIPOS>MOLECULE
guest-s15_vm2.mol2 : vm2 ligand conformer 197
          29          28           1
SMALL
USER_CHARGES
 
@<TRIPOS>ATOM
       1    C1      20.492073   19.784764   19.562633 C.3        1 MOL1        -0.2426
       2    H1      21.361917   20.427875   19.376128 H          1 MOL1         0.0959
       3    H2      20.630720   18.856952   18.992413 H          1 MOL1         0.0959
       4    H3      19.603644   20.297315   19.171203 H          1 MOL1         0.0959
       5    C2      20.343856   19.492704   21.070778 C.3        1 MOL1        -0.1410
       6    H4      20.245290   20.444686   21.609221 H          1 MOL1         0.0948
       7    H5      21.257761   19.005868   21.438404 H          1 MOL1         0.0948
       8    C3      19.120241   18.593232   21.359676 C.3        1 MOL1        -0.1435
       9    H6      18.204063   19.106985   21.037375 H          1 MOL1         0.0948
      10    H7      19.193020   17.685103   20.745467 H          1 MOL1         0.0948
      11    C4      18.978013   18.168553   22.844050 C.3        1 MOL1        -0.1435
      12    H8      19.852562   17.578444   23.144776 H          1 MOL1         0.0948
      13    H9      18.120341   17.485306   22.912893 H          1 MOL1         0.0948
      14    C5      18.738821   19.345861   23.828108 C.3        1 MOL1        -0.1435
      15    H10     18.221105   20.154821   23.294586 H          1 MOL1         0.0948
      16    H11     18.037339   19.024395   24.608484 H          1 MOL1         0.0948
      17    C6      20.030150   19.911975   24.487287 C.3        1 MOL1        -0.1500
      18    H12     19.907073   20.995491   24.614180 H          1 MOL1         0.0948
      19    H13     20.886498   19.793301   23.813036 H          1 MOL1         0.0948
      20    C7      20.396097   19.317381   25.869885 C.3        1 MOL1         0.1162
      21    H14     21.318519   19.806660   26.197688 H          1 MOL1         0.0910
      22    C8      20.670122   17.805603   25.812083 C.3        1 MOL1        -0.2491
      23    H15     21.034126   17.443933   26.781526 H          1 MOL1         0.0959
      24    H16     19.763583   17.241374   25.562227 H          1 MOL1         0.0959
      25    H17     21.438801   17.577932   25.063376 H          1 MOL1         0.0959
      26    N1      19.366626   19.635927   26.919499 N.4        1 MOL1        -0.5987
      27    H18     19.653925   19.293688   27.840861 H          1 MOL1         0.3605
      28    H19     18.465330   19.205236   26.699421 H          1 MOL1         0.3605
      29    H20     19.214217   20.645206   27.001804 H          1 MOL1         0.3605
@<TRIPOS>BOND
    1     1     2    1
    2     1     3    1
    3     1     4    1
    4     1     5    1
    5     5     6    1
    6     5     7    1
    7     5     8    1
    8     8     9    1
    9     8    10    1
   10     8    11    1
   11    11    12    1
   12    11    13    1
   13    11    14    1
   14    14    15    1
   15    14    16    1
   16    14    17    1
   17    17    18    1
   18    17    19    1
   19    17    20    1
   20    20    21    1
   21    20    22    1
   22    22    23    1
   23    22    24    1
   24    22    25    1
   25    20    26    1
   26    26    27    1
   27    26    28    1
   28    26    29    1
@<TRIPOS>SUBSTRUCTURE
       1 MOL1            1 RESIDUE      1      MOL     
@<SCITEGIC>MOL_PROPERTY
VM2 Rank
SciTegic.value.IntegerValue
197

@<SCITEGIC>MOL_PROPERTY
Conf_Id
SciTegic.value.IntegerValue
303

@<SCITEGIC>MOL_PROPERTY
Probability
SciTegic.value.DoubleValue
0.00

@<SCITEGIC>MOL_PROPERTY
Sum Probability
SciTegic.value.DoubleValue
100.00

@<SCITEGIC>MOL_PROPERTY
Delta G
SciTegic.value.DoubleValue
6.393

@<SCITEGIC>MOL_PROPERTY
G
SciTegic.value.DoubleValue
40.095

@<SCITEGIC>MOL_PROPERTY
E
SciTegic.value.DoubleValue
1.857

@<SCITEGIC>MOL_PROPERTY
-TS
SciTegic.value.DoubleValue
38.238

@<SCITEGIC>MOL_PROPERTY
U+W
SciTegic.value.DoubleValue
-22.288

@<SCITEGIC>MOL_PROPERTY
U
SciTegic.value.DoubleValue
30.254

@<SCITEGIC>MOL_PROPERTY
W
SciTegic.value.DoubleValue
-52.542

@<SCITEGIC>MOL_PROPERTY
W(PB)
SciTegic.value.DoubleValue
-54.955

@<SCITEGIC>MOL_PROPERTY
W(SA)
SciTegic.value.DoubleValue
2.414

@<SCITEGIC>MOL_PROPERTY
Valence
SciTegic.value.DoubleValue
8.874

@<SCITEGIC>MOL_PROPERTY
Coulomb
SciTegic.value.DoubleValue
20.220

@<SCITEGIC>MOL_PROPERTY
VdW
SciTegic.value.DoubleValue
1.159

@<SCITEGIC>MOL_PROPERTY
VdW6
SciTegic.value.DoubleValue
-11.236

@<SCITEGIC>MOL_PROPERTY
VdW12
SciTegic.value.DoubleValue
12.395

@<SCITEGIC>MOL_PROPERTY
Bond
SciTegic.value.DoubleValue
0.376

@<SCITEGIC>MOL_PROPERTY
Angle
SciTegic.value.DoubleValue
2.276

@<SCITEGIC>MOL_PROPERTY
Pdih
SciTegic.value.DoubleValue
6.222

@<SCITEGIC>MOL_PROPERTY
Idih
SciTegic.value.DoubleValue
0.000

@<SCITEGIC>MOL_PROPERTY
Tether
SciTegic.value.DoubleValue
0.000

@<TRIPOS>MOLECULE
guest-s15_vm2.mol2 : vm2 ligand conformer 198
          29          28           1
SMALL
USER_CHARGES
 
@<TRIPOS>ATOM
       1    C1      19.708608   18.225332   20.133452 C.3        1 MOL1        -0.2426
       2    H1      19.403030   17.607885   20.987314 H          1 MOL1         0.0959
       3    H2      19.301384   17.758117   19.227514 H          1 MOL1         0.0959
       4    H3      20.803516   18.202818   20.059543 H          1 MOL1         0.0959
       5    C2      19.190091   19.673192   20.273704 C.3        1 MOL1        -0.1410
       6    H4      18.096872   19.659034   20.384891 H          1 MOL1         0.0948
       7    H5      19.393723   20.212747   19.338228 H          1 MOL1         0.0948
       8    C3      19.820285   20.465925   21.447297 C.3        1 MOL1        -0.1435
       9    H6      20.903433   20.570582   21.295235 H          1 MOL1         0.0948
      10    H7      19.416154   21.487085   21.410595 H          1 MOL1         0.0948
      11    C4      19.527380   19.879070   22.852614 C.3        1 MOL1        -0.1435
      12    H8      18.572323   19.336130   22.838556 H          1 MOL1         0.0948
      13    H9      19.403883   20.720581   23.545432 H          1 MOL1         0.0948
      14    C5      20.664412   18.968901   23.382646 C.3        1 MOL1        -0.1435
      15    H10     20.968716   18.266802   22.597257 H          1 MOL1         0.0948
      16    H11     21.551616   19.582153   23.592593 H          1 MOL1         0.0948
      17    C6      20.300677   18.141586   24.643604 C.3        1 MOL1        -0.1500
      18    H12     21.143432   17.465070   24.838983 H          1 MOL1         0.0948
      19    H13     19.439003   17.493685   24.435385 H          1 MOL1         0.0948
      20    C7      20.036531   18.979253   25.917169 C.3        1 MOL1         0.1162
      21    H14     20.768211   19.792168   25.953649 H          1 MOL1         0.0910
      22    C8      20.216860   18.112487   27.174329 C.3        1 MOL1        -0.2491
      23    H15     19.513950   17.269920   27.179396 H          1 MOL1         0.0959
      24    H16     21.235537   17.708500   27.227923 H          1 MOL1         0.0959
      25    H17     20.047804   18.704598   28.082243 H          1 MOL1         0.0959
      26    N1      18.671156   19.610253   25.929185 N.4        1 MOL1        -0.5987
      27    H18     17.934227   18.900020   25.931364 H          1 MOL1         0.3605
      28    H19     18.526283   20.202266   25.108149 H          1 MOL1         0.3605
      29    H20     18.536520   20.193999   26.759768 H          1 MOL1         0.3605
@<TRIPOS>BOND
    1     1     2    1
    2     1     3    1
    3     1     4    1
    4     1     5    1
    5     5     6    1
    6     5     7    1
    7     5     8    1
    8     8     9    1
    9     8    10    1
   10     8    11    1
   11    11    12    1
   12    11    13    1
   13    11    14    1
   14    14    15    1
   15    14    16    1
   16    14    17    1
   17    17    18    1
   18    17    19    1
   19    17    20    1
   20    20    21    1
   21    20    22    1
   22    22    23    1
   23    22    24    1
   24    22    25    1
   25    20    26    1
   26    26    27    1
   27    26    28    1
   28    26    29    1
@<TRIPOS>SUBSTRUCTURE
       1 MOL1            1 RESIDUE      1      MOL     
@<SCITEGIC>MOL_PROPERTY
VM2 Rank
SciTegic.value.IntegerValue
198

@<SCITEGIC>MOL_PROPERTY
Conf_Id
SciTegic.value.IntegerValue
1035

@<SCITEGIC>MOL_PROPERTY
Probability
SciTegic.value.DoubleValue
0.00

@<SCITEGIC>MOL_PROPERTY
Sum Probability
SciTegic.value.DoubleValue
100.00

@<SCITEGIC>MOL_PROPERTY
Delta G
SciTegic.value.DoubleValue
6.428

@<SCITEGIC>MOL_PROPERTY
G
SciTegic.value.DoubleValue
40.131

@<SCITEGIC>MOL_PROPERTY
E
SciTegic.value.DoubleValue
2.283

@<SCITEGIC>MOL_PROPERTY
-TS
SciTegic.value.DoubleValue
37.848

@<SCITEGIC>MOL_PROPERTY
U+W
SciTegic.value.DoubleValue
-21.861

@<SCITEGIC>MOL_PROPERTY
U
SciTegic.value.DoubleValue
30.313

@<SCITEGIC>MOL_PROPERTY
W
SciTegic.value.DoubleValue
-52.174

@<SCITEGIC>MOL_PROPERTY
W(PB)
SciTegic.value.DoubleValue
-54.607

@<SCITEGIC>MOL_PROPERTY
W(SA)
SciTegic.value.DoubleValue
2.433

@<SCITEGIC>MOL_PROPERTY
Valence
SciTegic.value.DoubleValue
7.950

@<SCITEGIC>MOL_PROPERTY
Coulomb
SciTegic.value.DoubleValue
21.217

@<SCITEGIC>MOL_PROPERTY
VdW
SciTegic.value.DoubleValue
1.146

@<SCITEGIC>MOL_PROPERTY
VdW6
SciTegic.value.DoubleValue
-10.650

@<SCITEGIC>MOL_PROPERTY
VdW12
SciTegic.value.DoubleValue
11.796

@<SCITEGIC>MOL_PROPERTY
Bond
SciTegic.value.DoubleValue
0.329

@<SCITEGIC>MOL_PROPERTY
Angle
SciTegic.value.DoubleValue
2.264

@<SCITEGIC>MOL_PROPERTY
Pdih
SciTegic.value.DoubleValue
5.357

@<SCITEGIC>MOL_PROPERTY
Idih
SciTegic.value.DoubleValue
0.000

@<SCITEGIC>MOL_PROPERTY
Tether
SciTegic.value.DoubleValue
0.000

@<TRIPOS>MOLECULE
guest-s15_vm2.mol2 : vm2 ligand conformer 199
          29          28           1
SMALL
USER_CHARGES
 
@<TRIPOS>ATOM
       1    C1      20.660099   19.052744   19.807095 C.3        1 MOL1        -0.2426
       2    H1      21.037768   20.007393   19.418358 H          1 MOL1         0.0959
       3    H2      21.346871   18.714081   20.591020 H          1 MOL1         0.0959
       4    H3      20.699061   18.321416   18.989453 H          1 MOL1         0.0959
       5    C2      19.212465   19.205268   20.329217 C.3        1 MOL1        -0.1410
       6    H4      18.809616   18.228131   20.630034 H          1 MOL1         0.0948
       7    H5      18.584353   19.546152   19.494259 H          1 MOL1         0.0948
       8    C3      19.087868   20.222925   21.492333 C.3        1 MOL1        -0.1435
       9    H6      19.901538   20.959634   21.442433 H          1 MOL1         0.0948
      10    H7      18.161920   20.796372   21.346704 H          1 MOL1         0.0948
      11    C4      19.028718   19.592094   22.907690 C.3        1 MOL1        -0.1435
      12    H8      18.149883   18.936322   22.977480 H          1 MOL1         0.0948
      13    H9      18.872180   20.411120   23.618758 H          1 MOL1         0.0948
      14    C5      20.299874   18.801644   23.303989 C.3        1 MOL1        -0.1435
      15    H10     20.474432   18.012978   22.561907 H          1 MOL1         0.0948
      16    H11     21.173576   19.466535   23.263104 H          1 MOL1         0.0948
      17    C6      20.236116   18.114780   24.693875 C.3        1 MOL1        -0.1500
      18    H12     21.147571   17.510268   24.793661 H          1 MOL1         0.0948
      19    H13     19.401304   17.402298   24.726536 H          1 MOL1         0.0948
      20    C7      20.150923   19.083730   25.897206 C.3        1 MOL1         0.1162
      21    H14     20.761809   19.964370   25.676221 H          1 MOL1         0.0910
      22    C8      20.709859   18.416078   27.164666 C.3        1 MOL1        -0.2491
      23    H15     20.664465   19.103473   28.018437 H          1 MOL1         0.0959
      24    H16     20.141083   17.513476   27.421298 H          1 MOL1         0.0959
      25    H17     21.760142   18.130811   27.025567 H          1 MOL1         0.0959
      26    N1      18.750078   19.566738   26.157931 N.4        1 MOL1        -0.5987
      27    H18     18.724664   20.241180   26.928152 H          1 MOL1         0.3605
      28    H19     18.131374   18.791388   26.410113 H          1 MOL1         0.3605
      29    H20     18.350938   20.022948   25.334562 H          1 MOL1         0.3605
@<TRIPOS>BOND
    1     1     2    1
    2     1     3    1
    3     1     4    1
    4     1     5    1
    5     5     6    1
    6     5     7    1
    7     5     8    1
    8     8     9    1
    9     8    10    1
   10     8    11    1
   11    11    12    1
   12    11    13    1
   13    11    14    1
   14    14    15    1
   15    14    16    1
   16    14    17    1
   17    17    18    1
   18    17    19    1
   19    17    20    1
   20    20    21    1
   21    20    22    1
   22    22    23    1
   23    22    24    1
   24    22    25    1
   25    20    26    1
   26    26    27    1
   27    26    28    1
   28    26    29    1
@<TRIPOS>SUBSTRUCTURE
       1 MOL1            1 RESIDUE      1      MOL     
@<SCITEGIC>MOL_PROPERTY
VM2 Rank
SciTegic.value.IntegerValue
199

@<SCITEGIC>MOL_PROPERTY
Conf_Id
SciTegic.value.IntegerValue
851

@<SCITEGIC>MOL_PROPERTY
Probability
SciTegic.value.DoubleValue
0.00

@<SCITEGIC>MOL_PROPERTY
Sum Probability
SciTegic.value.DoubleValue
100.00

@<SCITEGIC>MOL_PROPERTY
Delta G
SciTegic.value.DoubleValue
6.437

@<SCITEGIC>MOL_PROPERTY
G
SciTegic.value.DoubleValue
40.139

@<SCITEGIC>MOL_PROPERTY
E
SciTegic.value.DoubleValue
2.576

@<SCITEGIC>MOL_PROPERTY
-TS
SciTegic.value.DoubleValue
37.564

@<SCITEGIC>MOL_PROPERTY
U+W
SciTegic.value.DoubleValue
-21.569

@<SCITEGIC>MOL_PROPERTY
U
SciTegic.value.DoubleValue
30.680

@<SCITEGIC>MOL_PROPERTY
W
SciTegic.value.DoubleValue
-52.249

@<SCITEGIC>MOL_PROPERTY
W(PB)
SciTegic.value.DoubleValue
-54.674

@<SCITEGIC>MOL_PROPERTY
W(SA)
SciTegic.value.DoubleValue
2.425

@<SCITEGIC>MOL_PROPERTY
Valence
SciTegic.value.DoubleValue
8.266

@<SCITEGIC>MOL_PROPERTY
Coulomb
SciTegic.value.DoubleValue
21.123

@<SCITEGIC>MOL_PROPERTY
VdW
SciTegic.value.DoubleValue
1.291

@<SCITEGIC>MOL_PROPERTY
VdW6
SciTegic.value.DoubleValue
-10.406

@<SCITEGIC>MOL_PROPERTY
VdW12
SciTegic.value.DoubleValue
11.698

@<SCITEGIC>MOL_PROPERTY
Bond
SciTegic.value.DoubleValue
0.334

@<SCITEGIC>MOL_PROPERTY
Angle
SciTegic.value.DoubleValue
2.443

@<SCITEGIC>MOL_PROPERTY
Pdih
SciTegic.value.DoubleValue
5.489

@<SCITEGIC>MOL_PROPERTY
Idih
SciTegic.value.DoubleValue
0.000

@<SCITEGIC>MOL_PROPERTY
Tether
SciTegic.value.DoubleValue
0.000

@<TRIPOS>MOLECULE
guest-s15_vm2.mol2 : vm2 ligand conformer 200
          29          28           1
SMALL
USER_CHARGES
 
@<TRIPOS>ATOM
       1    C1      20.743867   20.003817   20.087479 C.3        1 MOL1        -0.2426
       2    H1      20.460496   21.055000   19.946995 H          1 MOL1         0.0959
       3    H2      21.408699   19.946872   20.956209 H          1 MOL1         0.0959
       4    H3      21.321464   19.694431   19.206826 H          1 MOL1         0.0959
       5    C2      19.491158   19.112048   20.252371 C.3        1 MOL1        -0.1410
       6    H4      19.781769   18.055049   20.328717 H          1 MOL1         0.0948
       7    H5      18.894215   19.195457   19.333368 H          1 MOL1         0.0948
       8    C3      18.600774   19.514745   21.456163 C.3        1 MOL1        -0.1435
       9    H6      18.679516   20.594641   21.642422 H          1 MOL1         0.0948
      10    H7      17.552477   19.338757   21.177733 H          1 MOL1         0.0948
      11    C4      18.873192   18.725973   22.762994 C.3        1 MOL1        -0.1435
      12    H8      18.697706   17.656368   22.582881 H          1 MOL1         0.0948
      13    H9      18.124131   19.030210   23.502328 H          1 MOL1         0.0948
      14    C5      20.299628   18.917727   23.336263 C.3        1 MOL1        -0.1435
      15    H10     21.011280   18.448219   22.644712 H          1 MOL1         0.0948
      16    H11     20.560368   19.984429   23.373154 H          1 MOL1         0.0948
      17    C6      20.501429   18.273905   24.733178 C.3        1 MOL1        -0.1500
      18    H12     21.547760   17.948041   24.804670 H          1 MOL1         0.0948
      19    H13     19.895202   17.362874   24.824921 H          1 MOL1         0.0948
      20    C7      20.225185   19.228921   25.917930 C.3        1 MOL1         0.1162
      21    H14     20.863625   20.109712   25.798899 H          1 MOL1         0.0910
      22    C8      20.591043   18.547857   27.246454 C.3        1 MOL1        -0.2491
      23    H15     20.439545   19.233580   28.089219 H          1 MOL1         0.0959
      24    H16     19.976219   17.655232   27.417174 H          1 MOL1         0.0959
      25    H17     21.644942   18.242887   27.251583 H          1 MOL1         0.0959
      26    N1      18.809723   19.731007   25.961169 N.4        1 MOL1        -0.5987
      27    H18     18.667013   20.381786   26.738879 H          1 MOL1         0.3605
      28    H19     18.145540   18.961157   26.077486 H          1 MOL1         0.3605
      29    H20     18.568144   20.224246   25.097243 H          1 MOL1         0.3605
@<TRIPOS>BOND
    1     1     2    1
    2     1     3    1
    3     1     4    1
    4     1     5    1
    5     5     6    1
    6     5     7    1
    7     5     8    1
    8     8     9    1
    9     8    10    1
   10     8    11    1
   11    11    12    1
   12    11    13    1
   13    11    14    1
   14    14    15    1
   15    14    16    1
   16    14    17    1
   17    17    18    1
   18    17    19    1
   19    17    20    1
   20    20    21    1
   21    20    22    1
   22    22    23    1
   23    22    24    1
   24    22    25    1
   25    20    26    1
   26    26    27    1
   27    26    28    1
   28    26    29    1
@<TRIPOS>SUBSTRUCTURE
       1 MOL1            1 RESIDUE      1      MOL     
@<SCITEGIC>MOL_PROPERTY
VM2 Rank
SciTegic.value.IntegerValue
200

@<SCITEGIC>MOL_PROPERTY
Conf_Id
SciTegic.value.IntegerValue
373

@<SCITEGIC>MOL_PROPERTY
Probability
SciTegic.value.DoubleValue
0.00

@<SCITEGIC>MOL_PROPERTY
Sum Probability
SciTegic.value.DoubleValue
100.00

@<SCITEGIC>MOL_PROPERTY
Delta G
SciTegic.value.DoubleValue
6.518

@<SCITEGIC>MOL_PROPERTY
G
SciTegic.value.DoubleValue
40.220

@<SCITEGIC>MOL_PROPERTY
E
SciTegic.value.DoubleValue
2.431

@<SCITEGIC>MOL_PROPERTY
-TS
SciTegic.value.DoubleValue
37.790

@<SCITEGIC>MOL_PROPERTY
U+W
SciTegic.value.DoubleValue
-21.714

@<SCITEGIC>MOL_PROPERTY
U
SciTegic.value.DoubleValue
30.319

@<SCITEGIC>MOL_PROPERTY
W
SciTegic.value.DoubleValue
-52.033

@<SCITEGIC>MOL_PROPERTY
W(PB)
SciTegic.value.DoubleValue
-54.491

@<SCITEGIC>MOL_PROPERTY
W(SA)
SciTegic.value.DoubleValue
2.459

@<SCITEGIC>MOL_PROPERTY
Valence
SciTegic.value.DoubleValue
8.319

@<SCITEGIC>MOL_PROPERTY
Coulomb
SciTegic.value.DoubleValue
20.774

@<SCITEGIC>MOL_PROPERTY
VdW
SciTegic.value.DoubleValue
1.226

@<SCITEGIC>MOL_PROPERTY
VdW6
SciTegic.value.DoubleValue
-10.363

@<SCITEGIC>MOL_PROPERTY
VdW12
SciTegic.value.DoubleValue
11.589

@<SCITEGIC>MOL_PROPERTY
Bond
SciTegic.value.DoubleValue
0.335

@<SCITEGIC>MOL_PROPERTY
Angle
SciTegic.value.DoubleValue
2.135

@<SCITEGIC>MOL_PROPERTY
Pdih
SciTegic.value.DoubleValue
5.849

@<SCITEGIC>MOL_PROPERTY
Idih
SciTegic.value.DoubleValue
0.000

@<SCITEGIC>MOL_PROPERTY
Tether
SciTegic.value.DoubleValue
0.000

@<TRIPOS>MOLECULE
guest-s15_vm2.mol2 : vm2 ligand conformer 201
          29          28           1
SMALL
USER_CHARGES
 
@<TRIPOS>ATOM
       1    C1      19.520582   21.121299   21.104685 C.3        1 MOL1        -0.2426
       2    H1      20.078655   21.639784   21.895167 H          1 MOL1         0.0959
       3    H2      20.128232   21.137056   20.190502 H          1 MOL1         0.0959
       4    H3      18.603425   21.692118   20.909798 H          1 MOL1         0.0959
       5    C2      19.183618   19.674343   21.521020 C.3        1 MOL1        -0.1410
       6    H4      18.593321   19.195848   20.727042 H          1 MOL1         0.0948
       7    H5      18.542268   19.692253   22.410177 H          1 MOL1         0.0948
       8    C3      20.462108   18.842293   21.782414 C.3        1 MOL1        -0.1435
       9    H6      20.999069   18.738122   20.829395 H          1 MOL1         0.0948
      10    H7      21.149202   19.375180   22.452967 H          1 MOL1         0.0948
      11    C4      20.161456   17.427441   22.338059 C.3        1 MOL1        -0.1435
      12    H8      20.862161   16.724074   21.867155 H          1 MOL1         0.0948
      13    H9      19.162006   17.098761   22.021275 H          1 MOL1         0.0948
      14    C5      20.310597   17.268114   23.875341 C.3        1 MOL1        -0.1435
      15    H10     20.150276   16.206077   24.106926 H          1 MOL1         0.0948
      16    H11     21.346803   17.471253   24.171616 H          1 MOL1         0.0948
      17    C6      19.314320   18.089784   24.738808 C.3        1 MOL1        -0.1500
      18    H12     19.218678   17.604226   25.719081 H          1 MOL1         0.0948
      19    H13     18.319248   18.028458   24.279410 H          1 MOL1         0.0948
      20    C7      19.689056   19.574377   24.969607 C.3        1 MOL1         0.1162
      21    H14     19.879580   20.045599   24.002994 H          1 MOL1         0.0910
      22    C8      20.950182   19.728524   25.838596 C.3        1 MOL1        -0.2491
      23    H15     21.157839   20.788152   26.031993 H          1 MOL1         0.0959
      24    H16     20.830218   19.224467   26.805647 H          1 MOL1         0.0959
      25    H17     21.833748   19.312602   25.341914 H          1 MOL1         0.0959
      26    N1      18.544081   20.329823   25.585470 N.4        1 MOL1        -0.5987
      27    H18     17.701839   20.279482   25.005344 H          1 MOL1         0.3605
      28    H19     18.772402   21.320637   25.707320 H          1 MOL1         0.3605
      29    H20     18.304785   19.956677   26.508160 H          1 MOL1         0.3605
@<TRIPOS>BOND
    1     1     2    1
    2     1     3    1
    3     1     4    1
    4     1     5    1
    5     5     6    1
    6     5     7    1
    7     5     8    1
    8     8     9    1
    9     8    10    1
   10     8    11    1
   11    11    12    1
   12    11    13    1
   13    11    14    1
   14    14    15    1
   15    14    16    1
   16    14    17    1
   17    17    18    1
   18    17    19    1
   19    17    20    1
   20    20    21    1
   21    20    22    1
   22    22    23    1
   23    22    24    1
   24    22    25    1
   25    20    26    1
   26    26    27    1
   27    26    28    1
   28    26    29    1
@<TRIPOS>SUBSTRUCTURE
       1 MOL1            1 RESIDUE      1      MOL     
@<SCITEGIC>MOL_PROPERTY
VM2 Rank
SciTegic.value.IntegerValue
201

@<SCITEGIC>MOL_PROPERTY
Conf_Id
SciTegic.value.IntegerValue
84

@<SCITEGIC>MOL_PROPERTY
Probability
SciTegic.value.DoubleValue
0.00

@<SCITEGIC>MOL_PROPERTY
Sum Probability
SciTegic.value.DoubleValue
100.00

@<SCITEGIC>MOL_PROPERTY
Delta G
SciTegic.value.DoubleValue
6.526

@<SCITEGIC>MOL_PROPERTY
G
SciTegic.value.DoubleValue
40.228

@<SCITEGIC>MOL_PROPERTY
E
SciTegic.value.DoubleValue
1.928

@<SCITEGIC>MOL_PROPERTY
-TS
SciTegic.value.DoubleValue
38.300

@<SCITEGIC>MOL_PROPERTY
U+W
SciTegic.value.DoubleValue
-22.216

@<SCITEGIC>MOL_PROPERTY
U
SciTegic.value.DoubleValue
30.677

@<SCITEGIC>MOL_PROPERTY
W
SciTegic.value.DoubleValue
-52.893

@<SCITEGIC>MOL_PROPERTY
W(PB)
SciTegic.value.DoubleValue
-55.271

@<SCITEGIC>MOL_PROPERTY
W(SA)
SciTegic.value.DoubleValue
2.378

@<SCITEGIC>MOL_PROPERTY
Valence
SciTegic.value.DoubleValue
8.876

@<SCITEGIC>MOL_PROPERTY
Coulomb
SciTegic.value.DoubleValue
21.328

@<SCITEGIC>MOL_PROPERTY
VdW
SciTegic.value.DoubleValue
0.472

@<SCITEGIC>MOL_PROPERTY
VdW6
SciTegic.value.DoubleValue
-11.982

@<SCITEGIC>MOL_PROPERTY
VdW12
SciTegic.value.DoubleValue
12.454

@<SCITEGIC>MOL_PROPERTY
Bond
SciTegic.value.DoubleValue
0.338

@<SCITEGIC>MOL_PROPERTY
Angle
SciTegic.value.DoubleValue
2.800

@<SCITEGIC>MOL_PROPERTY
Pdih
SciTegic.value.DoubleValue
5.739

@<SCITEGIC>MOL_PROPERTY
Idih
SciTegic.value.DoubleValue
0.000

@<SCITEGIC>MOL_PROPERTY
Tether
SciTegic.value.DoubleValue
0.000

@<TRIPOS>MOLECULE
guest-s15_vm2.mol2 : vm2 ligand conformer 202
          29          28           1
SMALL
USER_CHARGES
 
@<TRIPOS>ATOM
       1    C1      18.472314   18.096883   21.433063 C.3        1 MOL1        -0.2426
       2    H1      17.375570   18.138480   21.419852 H          1 MOL1         0.0959
       3    H2      18.783633   17.295393   20.750671 H          1 MOL1         0.0959
       4    H3      18.783758   17.814969   22.444084 H          1 MOL1         0.0959
       5    C2      19.071663   19.453852   20.996405 C.3        1 MOL1        -0.1410
       6    H4      18.677709   20.271060   21.615299 H          1 MOL1         0.0948
       7    H5      18.724622   19.660337   19.974271 H          1 MOL1         0.0948
       8    C3      20.620966   19.470155   21.002114 C.3        1 MOL1        -0.1435
       9    H6      21.011250   18.465523   20.788856 H          1 MOL1         0.0948
      10    H7      20.952473   20.096244   20.162183 H          1 MOL1         0.0948
      11    C4      21.283868   20.037280   22.286694 C.3        1 MOL1        -0.1435
      12    H8      20.969432   21.078118   22.443858 H          1 MOL1         0.0948
      13    H9      22.365442   20.085186   22.098798 H          1 MOL1         0.0948
      14    C5      21.065375   19.207090   23.577703 C.3        1 MOL1        -0.1435
      15    H10     20.958507   18.146398   23.319303 H          1 MOL1         0.0948
      16    H11     21.974774   19.277407   24.190463 H          1 MOL1         0.0948
      17    C6      19.873381   19.706934   24.436141 C.3        1 MOL1        -0.1500
      18    H12     18.936150   19.648495   23.872085 H          1 MOL1         0.0948
      19    H13     20.030975   20.770768   24.657075 H          1 MOL1         0.0948
      20    C7      19.715836   18.951126   25.774982 C.3        1 MOL1         0.1162
      21    H14     20.679663   18.966030   26.293064 H          1 MOL1         0.0910
      22    C8      19.294982   17.485194   25.567147 C.3        1 MOL1        -0.2491
      23    H15     20.059333   16.922990   25.018790 H          1 MOL1         0.0959
      24    H16     19.154719   16.983945   26.532756 H          1 MOL1         0.0959
      25    H17     18.352184   17.418075   25.010251 H          1 MOL1         0.0959
      26    N1      18.737615   19.647485   26.679751 N.4        1 MOL1        -0.5987
      27    H18     17.801342   19.676205   26.267191 H          1 MOL1         0.3605
      28    H19     19.020847   20.613304   26.869044 H          1 MOL1         0.3605
      29    H20     18.659349   19.170817   27.582722 H          1 MOL1         0.3605
@<TRIPOS>BOND
    1     1     2    1
    2     1     3    1
    3     1     4    1
    4     1     5    1
    5     5     6    1
    6     5     7    1
    7     5     8    1
    8     8     9    1
    9     8    10    1
   10     8    11    1
   11    11    12    1
   12    11    13    1
   13    11    14    1
   14    14    15    1
   15    14    16    1
   16    14    17    1
   17    17    18    1
   18    17    19    1
   19    17    20    1
   20    20    21    1
   21    20    22    1
   22    22    23    1
   23    22    24    1
   24    22    25    1
   25    20    26    1
   26    26    27    1
   27    26    28    1
   28    26    29    1
@<TRIPOS>SUBSTRUCTURE
       1 MOL1            1 RESIDUE      1      MOL     
@<SCITEGIC>MOL_PROPERTY
VM2 Rank
SciTegic.value.IntegerValue
202

@<SCITEGIC>MOL_PROPERTY
Conf_Id
SciTegic.value.IntegerValue
1325

@<SCITEGIC>MOL_PROPERTY
Probability
SciTegic.value.DoubleValue
0.00

@<SCITEGIC>MOL_PROPERTY
Sum Probability
SciTegic.value.DoubleValue
100.00

@<SCITEGIC>MOL_PROPERTY
Delta G
SciTegic.value.DoubleValue
6.624

@<SCITEGIC>MOL_PROPERTY
G
SciTegic.value.DoubleValue
40.326

@<SCITEGIC>MOL_PROPERTY
E
SciTegic.value.DoubleValue
1.884

@<SCITEGIC>MOL_PROPERTY
-TS
SciTegic.value.DoubleValue
38.442

@<SCITEGIC>MOL_PROPERTY
U+W
SciTegic.value.DoubleValue
-22.261

@<SCITEGIC>MOL_PROPERTY
U
SciTegic.value.DoubleValue
30.536

@<SCITEGIC>MOL_PROPERTY
W
SciTegic.value.DoubleValue
-52.796

@<SCITEGIC>MOL_PROPERTY
W(PB)
SciTegic.value.DoubleValue
-55.157

@<SCITEGIC>MOL_PROPERTY
W(SA)
SciTegic.value.DoubleValue
2.360

@<SCITEGIC>MOL_PROPERTY
Valence
SciTegic.value.DoubleValue
9.319

@<SCITEGIC>MOL_PROPERTY
Coulomb
SciTegic.value.DoubleValue
20.399

@<SCITEGIC>MOL_PROPERTY
VdW
SciTegic.value.DoubleValue
0.817

@<SCITEGIC>MOL_PROPERTY
VdW6
SciTegic.value.DoubleValue
-11.400

@<SCITEGIC>MOL_PROPERTY
VdW12
SciTegic.value.DoubleValue
12.217

@<SCITEGIC>MOL_PROPERTY
Bond
SciTegic.value.DoubleValue
0.345

@<SCITEGIC>MOL_PROPERTY
Angle
SciTegic.value.DoubleValue
2.705

@<SCITEGIC>MOL_PROPERTY
Pdih
SciTegic.value.DoubleValue
6.269

@<SCITEGIC>MOL_PROPERTY
Idih
SciTegic.value.DoubleValue
0.000

@<SCITEGIC>MOL_PROPERTY
Tether
SciTegic.value.DoubleValue
0.000

@<TRIPOS>MOLECULE
guest-s15_vm2.mol2 : vm2 ligand conformer 203
          29          28           1
SMALL
USER_CHARGES
 
@<TRIPOS>ATOM
       1    C1      18.683939   20.250646   20.582089 C.3        1 MOL1        -0.2426
       2    H1      19.283885   20.684017   19.771341 H          1 MOL1         0.0959
       3    H2      17.627092   20.344420   20.300746 H          1 MOL1         0.0959
       4    H3      18.844144   20.857228   21.480161 H          1 MOL1         0.0959
       5    C2      19.054028   18.766239   20.807984 C.3        1 MOL1        -0.1410
       6    H4      18.854649   18.221742   19.874378 H          1 MOL1         0.0948
       7    H5      18.394885   18.319048   21.564999 H          1 MOL1         0.0948
       8    C3      20.540559   18.556260   21.195219 C.3        1 MOL1        -0.1435
       9    H6      20.890944   17.630876   20.717459 H          1 MOL1         0.0948
      10    H7      21.161067   19.359257   20.774131 H          1 MOL1         0.0948
      11    C4      20.801343   18.422572   22.717602 C.3        1 MOL1        -0.1435
      12    H8      21.868572   18.205615   22.862088 H          1 MOL1         0.0948
      13    H9      20.261007   17.546717   23.095127 H          1 MOL1         0.0948
      14    C5      20.429128   19.683287   23.538065 C.3        1 MOL1        -0.1435
      15    H10     20.926649   20.547801   23.077450 H          1 MOL1         0.0948
      16    H11     19.352193   19.876584   23.471926 H          1 MOL1         0.0948
      17    C6      20.866271   19.606795   25.027987 C.3        1 MOL1        -0.1500
      18    H12     21.159105   20.614171   25.351898 H          1 MOL1         0.0948
      19    H13     21.775860   18.999192   25.121453 H          1 MOL1         0.0948
      20    C7      19.800339   19.091684   26.026897 C.3        1 MOL1         0.1162
      21    H14     20.266547   19.084564   27.017004 H          1 MOL1         0.0910
      22    C8      19.337981   17.657331   25.724905 C.3        1 MOL1        -0.2491
      23    H15     18.720696   17.273756   26.546445 H          1 MOL1         0.0959
      24    H16     18.736972   17.613760   24.809038 H          1 MOL1         0.0959
      25    H17     20.197471   16.984984   25.612370 H          1 MOL1         0.0959
      26    N1      18.622412   20.021187   26.133251 N.4        1 MOL1        -0.5987
      27    H18     17.958244   19.702401   26.844531 H          1 MOL1         0.3605
      28    H19     18.116611   20.083611   25.246373 H          1 MOL1         0.3605
      29    H20     18.914018   20.968725   26.389858 H          1 MOL1         0.3605
@<TRIPOS>BOND
    1     1     2    1
    2     1     3    1
    3     1     4    1
    4     1     5    1
    5     5     6    1
    6     5     7    1
    7     5     8    1
    8     8     9    1
    9     8    10    1
   10     8    11    1
   11    11    12    1
   12    11    13    1
   13    11    14    1
   14    14    15    1
   15    14    16    1
   16    14    17    1
   17    17    18    1
   18    17    19    1
   19    17    20    1
   20    20    21    1
   21    20    22    1
   22    22    23    1
   23    22    24    1
   24    22    25    1
   25    20    26    1
   26    26    27    1
   27    26    28    1
   28    26    29    1
@<TRIPOS>SUBSTRUCTURE
       1 MOL1            1 RESIDUE      1      MOL     
@<SCITEGIC>MOL_PROPERTY
VM2 Rank
SciTegic.value.IntegerValue
203

@<SCITEGIC>MOL_PROPERTY
Conf_Id
SciTegic.value.IntegerValue
1650

@<SCITEGIC>MOL_PROPERTY
Probability
SciTegic.value.DoubleValue
0.00

@<SCITEGIC>MOL_PROPERTY
Sum Probability
SciTegic.value.DoubleValue
100.00

@<SCITEGIC>MOL_PROPERTY
Delta G
SciTegic.value.DoubleValue
6.647

@<SCITEGIC>MOL_PROPERTY
G
SciTegic.value.DoubleValue
40.350

@<SCITEGIC>MOL_PROPERTY
E
SciTegic.value.DoubleValue
2.326

@<SCITEGIC>MOL_PROPERTY
-TS
SciTegic.value.DoubleValue
38.024

@<SCITEGIC>MOL_PROPERTY
U+W
SciTegic.value.DoubleValue
-21.819

@<SCITEGIC>MOL_PROPERTY
U
SciTegic.value.DoubleValue
30.957

@<SCITEGIC>MOL_PROPERTY
W
SciTegic.value.DoubleValue
-52.775

@<SCITEGIC>MOL_PROPERTY
W(PB)
SciTegic.value.DoubleValue
-55.160

@<SCITEGIC>MOL_PROPERTY
W(SA)
SciTegic.value.DoubleValue
2.385

@<SCITEGIC>MOL_PROPERTY
Valence
SciTegic.value.DoubleValue
9.252

@<SCITEGIC>MOL_PROPERTY
Coulomb
SciTegic.value.DoubleValue
20.527

@<SCITEGIC>MOL_PROPERTY
VdW
SciTegic.value.DoubleValue
1.177

@<SCITEGIC>MOL_PROPERTY
VdW6
SciTegic.value.DoubleValue
-11.186

@<SCITEGIC>MOL_PROPERTY
VdW12
SciTegic.value.DoubleValue
12.363

@<SCITEGIC>MOL_PROPERTY
Bond
SciTegic.value.DoubleValue
0.373

@<SCITEGIC>MOL_PROPERTY
Angle
SciTegic.value.DoubleValue
2.560

@<SCITEGIC>MOL_PROPERTY
Pdih
SciTegic.value.DoubleValue
6.320

@<SCITEGIC>MOL_PROPERTY
Idih
SciTegic.value.DoubleValue
0.000

@<SCITEGIC>MOL_PROPERTY
Tether
SciTegic.value.DoubleValue
0.000

@<TRIPOS>MOLECULE
guest-s15_vm2.mol2 : vm2 ligand conformer 204
          29          28           1
SMALL
USER_CHARGES
 
@<TRIPOS>ATOM
       1    C1      19.824648   20.533996   20.156105 C.3        1 MOL1        -0.2426
       2    H1      19.518556   21.030360   21.083336 H          1 MOL1         0.0959
       3    H2      20.870385   20.802599   19.957870 H          1 MOL1         0.0959
       4    H3      19.215030   20.947146   19.342129 H          1 MOL1         0.0959
       5    C2      19.654182   18.998825   20.232652 C.3        1 MOL1        -0.1410
       6    H4      19.943087   18.578405   19.259184 H          1 MOL1         0.0948
       7    H5      18.595759   18.738355   20.372004 H          1 MOL1         0.0948
       8    C3      20.521959   18.334533   21.332511 C.3        1 MOL1        -0.1435
       9    H6      20.839962   17.348720   20.965900 H          1 MOL1         0.0948
      10    H7      21.447873   18.906348   21.483442 H          1 MOL1         0.0948
      11    C4      19.802956   18.115976   22.688661 C.3        1 MOL1        -0.1435
      12    H8      20.480093   17.557885   23.346355 H          1 MOL1         0.0948
      13    H9      18.931130   17.464990   22.536071 H          1 MOL1         0.0948
      14    C5      19.347895   19.421740   23.386571 C.3        1 MOL1        -0.1435
      15    H10     20.161719   20.159806   23.392033 H          1 MOL1         0.0948
      16    H11     18.534307   19.861224   22.794845 H          1 MOL1         0.0948
      17    C6      18.824028   19.196008   24.829558 C.3        1 MOL1        -0.1500
      18    H12     18.425686   18.178207   24.935845 H          1 MOL1         0.0948
      19    H13     17.970278   19.868788   24.985169 H          1 MOL1         0.0948
      20    C7      19.855382   19.487387   25.946196 C.3        1 MOL1         0.1162
      21    H14     20.194707   20.521670   25.833561 H          1 MOL1         0.0910
      22    C8      21.087058   18.568947   25.876830 C.3        1 MOL1        -0.2491
      23    H15     21.760415   18.760558   26.721309 H          1 MOL1         0.0959
      24    H16     20.796525   17.511468   25.906113 H          1 MOL1         0.0959
      25    H17     21.660555   18.748123   24.959902 H          1 MOL1         0.0959
      26    N1      19.217892   19.398588   27.304916 N.4        1 MOL1        -0.5987
      27    H18     19.883063   19.636540   28.046251 H          1 MOL1         0.3605
      28    H19     18.873713   18.453565   27.495123 H          1 MOL1         0.3605
      29    H20     18.423359   20.038961   27.391457 H          1 MOL1         0.3605
@<TRIPOS>BOND
    1     1     2    1
    2     1     3    1
    3     1     4    1
    4     1     5    1
    5     5     6    1
    6     5     7    1
    7     5     8    1
    8     8     9    1
    9     8    10    1
   10     8    11    1
   11    11    12    1
   12    11    13    1
   13    11    14    1
   14    14    15    1
   15    14    16    1
   16    14    17    1
   17    17    18    1
   18    17    19    1
   19    17    20    1
   20    20    21    1
   21    20    22    1
   22    22    23    1
   23    22    24    1
   24    22    25    1
   25    20    26    1
   26    26    27    1
   27    26    28    1
   28    26    29    1
@<TRIPOS>SUBSTRUCTURE
       1 MOL1            1 RESIDUE      1      MOL     
@<SCITEGIC>MOL_PROPERTY
VM2 Rank
SciTegic.value.IntegerValue
204

@<SCITEGIC>MOL_PROPERTY
Conf_Id
SciTegic.value.IntegerValue
1532

@<SCITEGIC>MOL_PROPERTY
Probability
SciTegic.value.DoubleValue
0.00

@<SCITEGIC>MOL_PROPERTY
Sum Probability
SciTegic.value.DoubleValue
100.00

@<SCITEGIC>MOL_PROPERTY
Delta G
SciTegic.value.DoubleValue
6.701

@<SCITEGIC>MOL_PROPERTY
G
SciTegic.value.DoubleValue
40.403

@<SCITEGIC>MOL_PROPERTY
E
SciTegic.value.DoubleValue
2.337

@<SCITEGIC>MOL_PROPERTY
-TS
SciTegic.value.DoubleValue
38.066

@<SCITEGIC>MOL_PROPERTY
U+W
SciTegic.value.DoubleValue
-21.807

@<SCITEGIC>MOL_PROPERTY
U
SciTegic.value.DoubleValue
30.372

@<SCITEGIC>MOL_PROPERTY
W
SciTegic.value.DoubleValue
-52.180

@<SCITEGIC>MOL_PROPERTY
W(PB)
SciTegic.value.DoubleValue
-54.600

@<SCITEGIC>MOL_PROPERTY
W(SA)
SciTegic.value.DoubleValue
2.420

@<SCITEGIC>MOL_PROPERTY
Valence
SciTegic.value.DoubleValue
9.265

@<SCITEGIC>MOL_PROPERTY
Coulomb
SciTegic.value.DoubleValue
19.847

@<SCITEGIC>MOL_PROPERTY
VdW
SciTegic.value.DoubleValue
1.260

@<SCITEGIC>MOL_PROPERTY
VdW6
SciTegic.value.DoubleValue
-10.647

@<SCITEGIC>MOL_PROPERTY
VdW12
SciTegic.value.DoubleValue
11.908

@<SCITEGIC>MOL_PROPERTY
Bond
SciTegic.value.DoubleValue
0.333

@<SCITEGIC>MOL_PROPERTY
Angle
SciTegic.value.DoubleValue
2.435

@<SCITEGIC>MOL_PROPERTY
Pdih
SciTegic.value.DoubleValue
6.497

@<SCITEGIC>MOL_PROPERTY
Idih
SciTegic.value.DoubleValue
0.000

@<SCITEGIC>MOL_PROPERTY
Tether
SciTegic.value.DoubleValue
0.000

@<TRIPOS>MOLECULE
guest-s15_vm2.mol2 : vm2 ligand conformer 205
          29          28           1
SMALL
USER_CHARGES
 
@<TRIPOS>ATOM
       1    C1      18.982955   20.426194   20.403710 C.3        1 MOL1        -0.2426
       2    H1      17.924165   20.166500   20.275148 H          1 MOL1         0.0959
       3    H2      19.086228   20.961765   21.353616 H          1 MOL1         0.0959
       4    H3      19.254795   21.122106   19.599541 H          1 MOL1         0.0959
       5    C2      19.872002   19.162017   20.347210 C.3        1 MOL1        -0.1410
       6    H4      20.933439   19.437822   20.416526 H          1 MOL1         0.0948
       7    H5      19.743245   18.703012   19.356964 H          1 MOL1         0.0948
       8    C3      19.517261   18.108314   21.427887 C.3        1 MOL1        -0.1435
       9    H6      18.446530   18.156779   21.669211 H          1 MOL1         0.0948
      10    H7      19.677824   17.110707   20.996206 H          1 MOL1         0.0948
      11    C4      20.360925   18.193977   22.725931 C.3        1 MOL1        -0.1435
      12    H8      21.421494   18.047355   22.479356 H          1 MOL1         0.0948
      13    H9      20.083263   17.348660   23.366473 H          1 MOL1         0.0948
      14    C5      20.197237   19.522116   23.505726 C.3        1 MOL1        -0.1435
      15    H10     20.646459   20.326055   22.908321 H          1 MOL1         0.0948
      16    H11     19.133823   19.772240   23.610174 H          1 MOL1         0.0948
      17    C6      20.897545   19.512628   24.893226 C.3        1 MOL1        -0.1500
      18    H12     21.322406   20.509129   25.072128 H          1 MOL1         0.0948
      19    H13     21.758313   18.831224   24.872878 H          1 MOL1         0.0948
      20    C7      19.996294   19.168215   26.105002 C.3        1 MOL1         0.1162
      21    H14     20.631074   19.194489   26.996111 H          1 MOL1         0.0910
      22    C8      19.384866   17.760728   26.014700 C.3        1 MOL1        -0.2491
      23    H15     18.868409   17.506574   26.948398 H          1 MOL1         0.0959
      24    H16     18.655000   17.691060   25.199242 H          1 MOL1         0.0959
      25    H17     20.164670   17.006828   25.850796 H          1 MOL1         0.0959
      26    N1      18.926915   20.201810   26.330609 N.4        1 MOL1        -0.5987
      27    H18     18.380282   19.996388   27.171807 H          1 MOL1         0.3605
      28    H19     18.275619   20.241050   25.542852 H          1 MOL1         0.3605
      29    H20     19.327452   21.137088   26.446808 H          1 MOL1         0.3605
@<TRIPOS>BOND
    1     1     2    1
    2     1     3    1
    3     1     4    1
    4     1     5    1
    5     5     6    1
    6     5     7    1
    7     5     8    1
    8     8     9    1
    9     8    10    1
   10     8    11    1
   11    11    12    1
   12    11    13    1
   13    11    14    1
   14    14    15    1
   15    14    16    1
   16    14    17    1
   17    17    18    1
   18    17    19    1
   19    17    20    1
   20    20    21    1
   21    20    22    1
   22    22    23    1
   23    22    24    1
   24    22    25    1
   25    20    26    1
   26    26    27    1
   27    26    28    1
   28    26    29    1
@<TRIPOS>SUBSTRUCTURE
       1 MOL1            1 RESIDUE      1      MOL     
@<SCITEGIC>MOL_PROPERTY
VM2 Rank
SciTegic.value.IntegerValue
205

@<SCITEGIC>MOL_PROPERTY
Conf_Id
SciTegic.value.IntegerValue
527

@<SCITEGIC>MOL_PROPERTY
Probability
SciTegic.value.DoubleValue
0.00

@<SCITEGIC>MOL_PROPERTY
Sum Probability
SciTegic.value.DoubleValue
100.00

@<SCITEGIC>MOL_PROPERTY
Delta G
SciTegic.value.DoubleValue
6.758

@<SCITEGIC>MOL_PROPERTY
G
SciTegic.value.DoubleValue
40.461

@<SCITEGIC>MOL_PROPERTY
E
SciTegic.value.DoubleValue
2.312

@<SCITEGIC>MOL_PROPERTY
-TS
SciTegic.value.DoubleValue
38.148

@<SCITEGIC>MOL_PROPERTY
U+W
SciTegic.value.DoubleValue
-21.832

@<SCITEGIC>MOL_PROPERTY
U
SciTegic.value.DoubleValue
30.788

@<SCITEGIC>MOL_PROPERTY
W
SciTegic.value.DoubleValue
-52.620

@<SCITEGIC>MOL_PROPERTY
W(PB)
SciTegic.value.DoubleValue
-55.023

@<SCITEGIC>MOL_PROPERTY
W(SA)
SciTegic.value.DoubleValue
2.402

@<SCITEGIC>MOL_PROPERTY
Valence
SciTegic.value.DoubleValue
9.278

@<SCITEGIC>MOL_PROPERTY
Coulomb
SciTegic.value.DoubleValue
20.293

@<SCITEGIC>MOL_PROPERTY
VdW
SciTegic.value.DoubleValue
1.217

@<SCITEGIC>MOL_PROPERTY
VdW6
SciTegic.value.DoubleValue
-11.113

@<SCITEGIC>MOL_PROPERTY
VdW12
SciTegic.value.DoubleValue
12.330

@<SCITEGIC>MOL_PROPERTY
Bond
SciTegic.value.DoubleValue
0.365

@<SCITEGIC>MOL_PROPERTY
Angle
SciTegic.value.DoubleValue
2.560

@<SCITEGIC>MOL_PROPERTY
Pdih
SciTegic.value.DoubleValue
6.353

@<SCITEGIC>MOL_PROPERTY
Idih
SciTegic.value.DoubleValue
0.000

@<SCITEGIC>MOL_PROPERTY
Tether
SciTegic.value.DoubleValue
0.000

@<TRIPOS>MOLECULE
guest-s15_vm2.mol2 : vm2 ligand conformer 206
          29          28           1
SMALL
USER_CHARGES
 
@<TRIPOS>ATOM
       1    C1      20.628077   18.850896   19.948649 C.3        1 MOL1        -0.2426
       2    H1      21.360565   18.648386   20.738085 H          1 MOL1         0.0959
       3    H2      20.295776   17.886687   19.542497 H          1 MOL1         0.0959
       4    H3      21.144210   19.390922   19.144372 H          1 MOL1         0.0959
       5    C2      19.425704   19.672973   20.468351 C.3        1 MOL1        -0.1410
       6    H4      18.738564   19.838481   19.626742 H          1 MOL1         0.0948
       7    H5      19.754947   20.670974   20.789524 H          1 MOL1         0.0948
       8    C3      18.650777   18.966097   21.610117 C.3        1 MOL1        -0.1435
       9    H6      17.577989   19.150271   21.459792 H          1 MOL1         0.0948
      10    H7      18.775892   17.876935   21.537282 H          1 MOL1         0.0948
      11    C4      19.011145   19.447680   23.039335 C.3        1 MOL1        -0.1435
      12    H8      18.349020   18.919957   23.734559 H          1 MOL1         0.0948
      13    H9      18.780623   20.517871   23.132380 H          1 MOL1         0.0948
      14    C5      20.485581   19.198274   23.440834 C.3        1 MOL1        -0.1435
      15    H10     20.720998   18.130027   23.345158 H          1 MOL1         0.0948
      16    H11     21.137596   19.717066   22.727441 H          1 MOL1         0.0948
      17    C6      20.870651   19.707299   24.858934 C.3        1 MOL1        -0.1500
      18    H12     20.741706   20.796750   24.900660 H          1 MOL1         0.0948
      19    H13     21.947532   19.537758   24.989679 H          1 MOL1         0.0948
      20    C7      20.151115   19.067877   26.074144 C.3        1 MOL1         0.1162
      21    H14     20.719985   19.356891   26.963272 H          1 MOL1         0.0910
      22    C8      20.144940   17.530476   26.014999 C.3        1 MOL1        -0.2491
      23    H15     19.760363   17.111464   26.952874 H          1 MOL1         0.0959
      24    H16     19.514454   17.159275   25.198171 H          1 MOL1         0.0959
      25    H17     21.161043   17.143442   25.869108 H          1 MOL1         0.0959
      26    N1      18.768009   19.614427   26.298638 N.4        1 MOL1        -0.5987
      27    H18     18.344367   19.221475   27.144124 H          1 MOL1         0.3605
      28    H19     18.149646   19.397337   25.514614 H          1 MOL1         0.3605
      29    H20     18.781313   20.632470   26.408663 H          1 MOL1         0.3605
@<TRIPOS>BOND
    1     1     2    1
    2     1     3    1
    3     1     4    1
    4     1     5    1
    5     5     6    1
    6     5     7    1
    7     5     8    1
    8     8     9    1
    9     8    10    1
   10     8    11    1
   11    11    12    1
   12    11    13    1
   13    11    14    1
   14    14    15    1
   15    14    16    1
   16    14    17    1
   17    17    18    1
   18    17    19    1
   19    17    20    1
   20    20    21    1
   21    20    22    1
   22    22    23    1
   23    22    24    1
   24    22    25    1
   25    20    26    1
   26    26    27    1
   27    26    28    1
   28    26    29    1
@<TRIPOS>SUBSTRUCTURE
       1 MOL1            1 RESIDUE      1      MOL     
@<SCITEGIC>MOL_PROPERTY
VM2 Rank
SciTegic.value.IntegerValue
206

@<SCITEGIC>MOL_PROPERTY
Conf_Id
SciTegic.value.IntegerValue
525

@<SCITEGIC>MOL_PROPERTY
Probability
SciTegic.value.DoubleValue
0.00

@<SCITEGIC>MOL_PROPERTY
Sum Probability
SciTegic.value.DoubleValue
100.00

@<SCITEGIC>MOL_PROPERTY
Delta G
SciTegic.value.DoubleValue
6.813

@<SCITEGIC>MOL_PROPERTY
G
SciTegic.value.DoubleValue
40.515

@<SCITEGIC>MOL_PROPERTY
E
SciTegic.value.DoubleValue
2.307

@<SCITEGIC>MOL_PROPERTY
-TS
SciTegic.value.DoubleValue
38.209

@<SCITEGIC>MOL_PROPERTY
U+W
SciTegic.value.DoubleValue
-21.838

@<SCITEGIC>MOL_PROPERTY
U
SciTegic.value.DoubleValue
30.732

@<SCITEGIC>MOL_PROPERTY
W
SciTegic.value.DoubleValue
-52.570

@<SCITEGIC>MOL_PROPERTY
W(PB)
SciTegic.value.DoubleValue
-54.995

@<SCITEGIC>MOL_PROPERTY
W(SA)
SciTegic.value.DoubleValue
2.425

@<SCITEGIC>MOL_PROPERTY
Valence
SciTegic.value.DoubleValue
8.311

@<SCITEGIC>MOL_PROPERTY
Coulomb
SciTegic.value.DoubleValue
21.302

@<SCITEGIC>MOL_PROPERTY
VdW
SciTegic.value.DoubleValue
1.120

@<SCITEGIC>MOL_PROPERTY
VdW6
SciTegic.value.DoubleValue
-11.478

@<SCITEGIC>MOL_PROPERTY
VdW12
SciTegic.value.DoubleValue
12.598

@<SCITEGIC>MOL_PROPERTY
Bond
SciTegic.value.DoubleValue
0.388

@<SCITEGIC>MOL_PROPERTY
Angle
SciTegic.value.DoubleValue
3.090

@<SCITEGIC>MOL_PROPERTY
Pdih
SciTegic.value.DoubleValue
4.832

@<SCITEGIC>MOL_PROPERTY
Idih
SciTegic.value.DoubleValue
0.000

@<SCITEGIC>MOL_PROPERTY
Tether
SciTegic.value.DoubleValue
0.000

@<TRIPOS>MOLECULE
guest-s15_vm2.mol2 : vm2 ligand conformer 207
          29          28           1
SMALL
USER_CHARGES
 
@<TRIPOS>ATOM
       1    C1      19.472530   20.886299   21.439925 C.3        1 MOL1        -0.2426
       2    H1      19.786983   20.851542   22.487994 H          1 MOL1         0.0959
       3    H2      20.296493   21.315865   20.855560 H          1 MOL1         0.0959
       4    H3      18.621143   21.575617   21.370993 H          1 MOL1         0.0959
       5    C2      19.083275   19.490729   20.898771 C.3        1 MOL1        -0.1410
       6    H4      18.763729   19.615053   19.854608 H          1 MOL1         0.0948
       7    H5      18.208223   19.096476   21.432559 H          1 MOL1         0.0948
       8    C3      20.245187   18.465749   20.934520 C.3        1 MOL1        -0.1435
       9    H6      20.121139   17.791607   20.075730 H          1 MOL1         0.0948
      10    H7      21.204448   18.975200   20.769243 H          1 MOL1         0.0948
      11    C4      20.325366   17.576977   22.205592 C.3        1 MOL1        -0.1435
      12    H8      21.105917   16.824657   22.026149 H          1 MOL1         0.0948
      13    H9      19.393909   17.007171   22.327534 H          1 MOL1         0.0948
      14    C5      20.678191   18.319173   23.519568 C.3        1 MOL1        -0.1435
      15    H10     21.322454   17.661370   24.117865 H          1 MOL1         0.0948
      16    H11     21.279383   19.211231   23.298741 H          1 MOL1         0.0948
      17    C6      19.432046   18.688741   24.365917 C.3        1 MOL1        -0.1500
      18    H12     18.948025   17.770568   24.724245 H          1 MOL1         0.0948
      19    H13     18.694916   19.191213   23.730204 H          1 MOL1         0.0948
      20    C7      19.749180   19.609742   25.565744 C.3        1 MOL1         0.1162
      21    H14     20.261493   20.500007   25.188192 H          1 MOL1         0.0910
      22    C8      20.661905   18.924247   26.598144 C.3        1 MOL1        -0.2491
      23    H15     20.216823   17.990118   26.962845 H          1 MOL1         0.0959
      24    H16     21.644276   18.693227   26.170118 H          1 MOL1         0.0959
      25    H17     20.830316   19.580422   27.460932 H          1 MOL1         0.0959
      26    N1      18.488319   20.094344   26.225819 N.4        1 MOL1        -0.5987
      27    H18     18.693159   20.736397   26.996873 H          1 MOL1         0.3605
      28    H19     17.946278   19.316696   26.612115 H          1 MOL1         0.3605
      29    H20     17.884505   20.593177   25.566015 H          1 MOL1         0.3605
@<TRIPOS>BOND
    1     1     2    1
    2     1     3    1
    3     1     4    1
    4     1     5    1
    5     5     6    1
    6     5     7    1
    7     5     8    1
    8     8     9    1
    9     8    10    1
   10     8    11    1
   11    11    12    1
   12    11    13    1
   13    11    14    1
   14    14    15    1
   15    14    16    1
   16    14    17    1
   17    17    18    1
   18    17    19    1
   19    17    20    1
   20    20    21    1
   21    20    22    1
   22    22    23    1
   23    22    24    1
   24    22    25    1
   25    20    26    1
   26    26    27    1
   27    26    28    1
   28    26    29    1
@<TRIPOS>SUBSTRUCTURE
       1 MOL1            1 RESIDUE      1      MOL     
@<SCITEGIC>MOL_PROPERTY
VM2 Rank
SciTegic.value.IntegerValue
207

@<SCITEGIC>MOL_PROPERTY
Conf_Id
SciTegic.value.IntegerValue
122

@<SCITEGIC>MOL_PROPERTY
Probability
SciTegic.value.DoubleValue
0.00

@<SCITEGIC>MOL_PROPERTY
Sum Probability
SciTegic.value.DoubleValue
100.00

@<SCITEGIC>MOL_PROPERTY
Delta G
SciTegic.value.DoubleValue
6.814

@<SCITEGIC>MOL_PROPERTY
G
SciTegic.value.DoubleValue
40.516

@<SCITEGIC>MOL_PROPERTY
E
SciTegic.value.DoubleValue
2.189

@<SCITEGIC>MOL_PROPERTY
-TS
SciTegic.value.DoubleValue
38.328

@<SCITEGIC>MOL_PROPERTY
U+W
SciTegic.value.DoubleValue
-21.956

@<SCITEGIC>MOL_PROPERTY
U
SciTegic.value.DoubleValue
30.891

@<SCITEGIC>MOL_PROPERTY
W
SciTegic.value.DoubleValue
-52.847

@<SCITEGIC>MOL_PROPERTY
W(PB)
SciTegic.value.DoubleValue
-55.241

@<SCITEGIC>MOL_PROPERTY
W(SA)
SciTegic.value.DoubleValue
2.393

@<SCITEGIC>MOL_PROPERTY
Valence
SciTegic.value.DoubleValue
9.315

@<SCITEGIC>MOL_PROPERTY
Coulomb
SciTegic.value.DoubleValue
20.615

@<SCITEGIC>MOL_PROPERTY
VdW
SciTegic.value.DoubleValue
0.961

@<SCITEGIC>MOL_PROPERTY
VdW6
SciTegic.value.DoubleValue
-11.161

@<SCITEGIC>MOL_PROPERTY
VdW12
SciTegic.value.DoubleValue
12.122

@<SCITEGIC>MOL_PROPERTY
Bond
SciTegic.value.DoubleValue
0.342

@<SCITEGIC>MOL_PROPERTY
Angle
SciTegic.value.DoubleValue
2.654

@<SCITEGIC>MOL_PROPERTY
Pdih
SciTegic.value.DoubleValue
6.319

@<SCITEGIC>MOL_PROPERTY
Idih
SciTegic.value.DoubleValue
0.000

@<SCITEGIC>MOL_PROPERTY
Tether
SciTegic.value.DoubleValue
0.000

@<TRIPOS>MOLECULE
guest-s15_vm2.mol2 : vm2 ligand conformer 208
          29          28           1
SMALL
USER_CHARGES
 
@<TRIPOS>ATOM
       1    C1      18.036218   19.451189   21.558514 C.3        1 MOL1        -0.2426
       2    H1      18.199791   19.749102   22.598897 H          1 MOL1         0.0959
       3    H2      17.835884   20.360262   20.976744 H          1 MOL1         0.0959
       4    H3      17.132524   18.829030   21.526112 H          1 MOL1         0.0959
       5    C2      19.244930   18.681993   20.976747 C.3        1 MOL1        -0.1410
       6    H4      19.009919   18.427783   19.933685 H          1 MOL1         0.0948
       7    H5      19.381560   17.722555   21.493367 H          1 MOL1         0.0948
       8    C3      20.560765   19.499783   20.998572 C.3        1 MOL1        -0.1435
       9    H6      21.132628   19.237727   20.097647 H          1 MOL1         0.0948
      10    H7      20.342157   20.572278   20.903477 H          1 MOL1         0.0948
      11    C4      21.488383   19.251334   22.218816 C.3        1 MOL1        -0.1435
      12    H8      22.418385   19.807647   22.037102 H          1 MOL1         0.0948
      13    H9      21.784365   18.194039   22.257244 H          1 MOL1         0.0948
      14    C5      20.928248   19.704168   23.591503 C.3        1 MOL1        -0.1435
      15    H10     21.765968   20.070345   24.201220 H          1 MOL1         0.0948
      16    H11     20.259088   20.562781   23.453394 H          1 MOL1         0.0948
      17    C6      20.230741   18.563353   24.377642 C.3        1 MOL1        -0.1500
      18    H12     20.943637   17.737651   24.503273 H          1 MOL1         0.0948
      19    H13     19.388298   18.156580   23.807739 H          1 MOL1         0.0948
      20    C7      19.740831   19.008111   25.772473 C.3        1 MOL1         0.1162
      21    H14     20.593230   19.423571   26.318756 H          1 MOL1         0.0910
      22    C8      19.203825   17.802305   26.559781 C.3        1 MOL1        -0.2491
      23    H15     18.887293   18.105015   27.565551 H          1 MOL1         0.0959
      24    H16     18.343307   17.348216   26.052571 H          1 MOL1         0.0959
      25    H17     19.978685   17.033753   26.672302 H          1 MOL1         0.0959
      26    N1      18.702059   20.093763   25.699951 N.4        1 MOL1        -0.5987
      27    H18     18.411483   20.394274   26.634871 H          1 MOL1         0.3605
      28    H19     17.864238   19.775519   25.206085 H          1 MOL1         0.3605
      29    H20     19.058152   20.918931   25.210152 H          1 MOL1         0.3605
@<TRIPOS>BOND
    1     1     2    1
    2     1     3    1
    3     1     4    1
    4     1     5    1
    5     5     6    1
    6     5     7    1
    7     5     8    1
    8     8     9    1
    9     8    10    1
   10     8    11    1
   11    11    12    1
   12    11    13    1
   13    11    14    1
   14    14    15    1
   15    14    16    1
   16    14    17    1
   17    17    18    1
   18    17    19    1
   19    17    20    1
   20    20    21    1
   21    20    22    1
   22    22    23    1
   23    22    24    1
   24    22    25    1
   25    20    26    1
   26    26    27    1
   27    26    28    1
   28    26    29    1
@<TRIPOS>SUBSTRUCTURE
       1 MOL1            1 RESIDUE      1      MOL     
@<SCITEGIC>MOL_PROPERTY
VM2 Rank
SciTegic.value.IntegerValue
208

@<SCITEGIC>MOL_PROPERTY
Conf_Id
SciTegic.value.IntegerValue
1526

@<SCITEGIC>MOL_PROPERTY
Probability
SciTegic.value.DoubleValue
0.00

@<SCITEGIC>MOL_PROPERTY
Sum Probability
SciTegic.value.DoubleValue
100.00

@<SCITEGIC>MOL_PROPERTY
Delta G
SciTegic.value.DoubleValue
6.823

@<SCITEGIC>MOL_PROPERTY
G
SciTegic.value.DoubleValue
40.526

@<SCITEGIC>MOL_PROPERTY
E
SciTegic.value.DoubleValue
2.176

@<SCITEGIC>MOL_PROPERTY
-TS
SciTegic.value.DoubleValue
38.350

@<SCITEGIC>MOL_PROPERTY
U+W
SciTegic.value.DoubleValue
-21.969

@<SCITEGIC>MOL_PROPERTY
U
SciTegic.value.DoubleValue
30.725

@<SCITEGIC>MOL_PROPERTY
W
SciTegic.value.DoubleValue
-52.693

@<SCITEGIC>MOL_PROPERTY
W(PB)
SciTegic.value.DoubleValue
-55.086

@<SCITEGIC>MOL_PROPERTY
W(SA)
SciTegic.value.DoubleValue
2.393

@<SCITEGIC>MOL_PROPERTY
Valence
SciTegic.value.DoubleValue
8.746

@<SCITEGIC>MOL_PROPERTY
Coulomb
SciTegic.value.DoubleValue
21.258

@<SCITEGIC>MOL_PROPERTY
VdW
SciTegic.value.DoubleValue
0.720

@<SCITEGIC>MOL_PROPERTY
VdW6
SciTegic.value.DoubleValue
-11.141

@<SCITEGIC>MOL_PROPERTY
VdW12
SciTegic.value.DoubleValue
11.861

@<SCITEGIC>MOL_PROPERTY
Bond
SciTegic.value.DoubleValue
0.332

@<SCITEGIC>MOL_PROPERTY
Angle
SciTegic.value.DoubleValue
2.430

@<SCITEGIC>MOL_PROPERTY
Pdih
SciTegic.value.DoubleValue
5.984

@<SCITEGIC>MOL_PROPERTY
Idih
SciTegic.value.DoubleValue
0.000

@<SCITEGIC>MOL_PROPERTY
Tether
SciTegic.value.DoubleValue
0.000

@<TRIPOS>MOLECULE
guest-s15_vm2.mol2 : vm2 ligand conformer 209
          29          28           1
SMALL
USER_CHARGES
 
@<TRIPOS>ATOM
       1    C1      20.605445   17.730664   21.272213 C.3        1 MOL1        -0.2426
       2    H1      21.641277   17.415776   21.091519 H          1 MOL1         0.0959
       3    H2      20.384658   17.563087   22.331099 H          1 MOL1         0.0959
       4    H3      19.950071   17.074341   20.685105 H          1 MOL1         0.0959
       5    C2      20.409045   19.209298   20.865696 C.3        1 MOL1        -0.1410
       6    H4      20.633525   19.295148   19.793283 H          1 MOL1         0.0948
       7    H5      21.138132   19.853481   21.375119 H          1 MOL1         0.0948
       8    C3      18.968724   19.725241   21.109656 C.3        1 MOL1        -0.1435
       9    H6      18.723824   20.428011   20.301259 H          1 MOL1         0.0948
      10    H7      18.248423   18.901827   21.008490 H          1 MOL1         0.0948
      11    C4      18.739388   20.472130   22.451507 C.3        1 MOL1        -0.1435
      12    H8      17.717995   20.876500   22.425608 H          1 MOL1         0.0948
      13    H9      19.397774   21.349591   22.510847 H          1 MOL1         0.0948
      14    C5      18.872938   19.610456   23.733629 C.3        1 MOL1        -0.1435
      15    H10     18.132404   19.971363   24.459372 H          1 MOL1         0.0948
      16    H11     18.596597   18.572141   23.511872 H          1 MOL1         0.0948
      17    C6      20.281366   19.695335   24.385456 C.3        1 MOL1        -0.1500
      18    H12     20.511014   20.747257   24.599587 H          1 MOL1         0.0948
      19    H13     21.048158   19.363823   23.676840 H          1 MOL1         0.0948
      20    C7      20.441871   18.890622   25.697127 C.3        1 MOL1         0.1162
      21    H14     21.449063   19.087060   26.077547 H          1 MOL1         0.0910
      22    C8      20.321847   17.374339   25.466058 C.3        1 MOL1        -0.2491
      23    H15     19.312192   17.089933   25.147262 H          1 MOL1         0.0959
      24    H16     21.032938   17.039373   24.701123 H          1 MOL1         0.0959
      25    H17     20.547898   16.827105   26.389440 H          1 MOL1         0.0959
      26    N1      19.495377   19.347916   26.772658 N.4        1 MOL1        -0.5987
      27    H18     19.659299   18.849403   27.651969 H          1 MOL1         0.3605
      28    H19     18.521972   19.184578   26.503767 H          1 MOL1         0.3605
      29    H20     19.599585   20.348581   26.963598 H          1 MOL1         0.3605
@<TRIPOS>BOND
    1     1     2    1
    2     1     3    1
    3     1     4    1
    4     1     5    1
    5     5     6    1
    6     5     7    1
    7     5     8    1
    8     8     9    1
    9     8    10    1
   10     8    11    1
   11    11    12    1
   12    11    13    1
   13    11    14    1
   14    14    15    1
   15    14    16    1
   16    14    17    1
   17    17    18    1
   18    17    19    1
   19    17    20    1
   20    20    21    1
   21    20    22    1
   22    22    23    1
   23    22    24    1
   24    22    25    1
   25    20    26    1
   26    26    27    1
   27    26    28    1
   28    26    29    1
@<TRIPOS>SUBSTRUCTURE
       1 MOL1            1 RESIDUE      1      MOL     
@<SCITEGIC>MOL_PROPERTY
VM2 Rank
SciTegic.value.IntegerValue
209

@<SCITEGIC>MOL_PROPERTY
Conf_Id
SciTegic.value.IntegerValue
314

@<SCITEGIC>MOL_PROPERTY
Probability
SciTegic.value.DoubleValue
0.00

@<SCITEGIC>MOL_PROPERTY
Sum Probability
SciTegic.value.DoubleValue
100.00

@<SCITEGIC>MOL_PROPERTY
Delta G
SciTegic.value.DoubleValue
6.895

@<SCITEGIC>MOL_PROPERTY
G
SciTegic.value.DoubleValue
40.597

@<SCITEGIC>MOL_PROPERTY
E
SciTegic.value.DoubleValue
1.974

@<SCITEGIC>MOL_PROPERTY
-TS
SciTegic.value.DoubleValue
38.623

@<SCITEGIC>MOL_PROPERTY
U+W
SciTegic.value.DoubleValue
-22.170

@<SCITEGIC>MOL_PROPERTY
U
SciTegic.value.DoubleValue
30.488

@<SCITEGIC>MOL_PROPERTY
W
SciTegic.value.DoubleValue
-52.658

@<SCITEGIC>MOL_PROPERTY
W(PB)
SciTegic.value.DoubleValue
-55.024

@<SCITEGIC>MOL_PROPERTY
W(SA)
SciTegic.value.DoubleValue
2.365

@<SCITEGIC>MOL_PROPERTY
Valence
SciTegic.value.DoubleValue
9.346

@<SCITEGIC>MOL_PROPERTY
Coulomb
SciTegic.value.DoubleValue
20.316

@<SCITEGIC>MOL_PROPERTY
VdW
SciTegic.value.DoubleValue
0.826

@<SCITEGIC>MOL_PROPERTY
VdW6
SciTegic.value.DoubleValue
-11.863

@<SCITEGIC>MOL_PROPERTY
VdW12
SciTegic.value.DoubleValue
12.689

@<SCITEGIC>MOL_PROPERTY
Bond
SciTegic.value.DoubleValue
0.377

@<SCITEGIC>MOL_PROPERTY
Angle
SciTegic.value.DoubleValue
2.762

@<SCITEGIC>MOL_PROPERTY
Pdih
SciTegic.value.DoubleValue
6.207

@<SCITEGIC>MOL_PROPERTY
Idih
SciTegic.value.DoubleValue
0.000

@<SCITEGIC>MOL_PROPERTY
Tether
SciTegic.value.DoubleValue
0.000

@<TRIPOS>MOLECULE
guest-s15_vm2.mol2 : vm2 ligand conformer 210
          29          28           1
SMALL
USER_CHARGES
 
@<TRIPOS>ATOM
       1    C1      19.335471   20.958203   20.189361 C.3        1 MOL1        -0.2426
       2    H1      19.367725   21.771188   20.926404 H          1 MOL1         0.0959
       3    H2      20.300285   20.932608   19.666143 H          1 MOL1         0.0959
       4    H3      18.559145   21.202075   19.452539 H          1 MOL1         0.0959
       5    C2      19.036627   19.604736   20.867686 C.3        1 MOL1        -0.1410
       6    H4      18.976367   18.818467   20.102034 H          1 MOL1         0.0948
       7    H5      18.051091   19.650683   21.351466 H          1 MOL1         0.0948
       8    C3      20.117725   19.236479   21.907300 C.3        1 MOL1        -0.1435
       9    H6      21.095577   19.180899   21.408888 H          1 MOL1         0.0948
      10    H7      20.203467   20.039236   22.648890 H          1 MOL1         0.0948
      11    C4      19.821775   17.878236   22.590195 C.3        1 MOL1        -0.1435
      12    H8      19.914896   17.091573   21.828418 H          1 MOL1         0.0948
      13    H9      18.782698   17.825369   22.941108 H          1 MOL1         0.0948
      14    C5      20.797233   17.556323   23.750924 C.3        1 MOL1        -0.1435
      15    H10     21.007091   16.477958   23.726605 H          1 MOL1         0.0948
      16    H11     21.765619   18.046232   23.578453 H          1 MOL1         0.0948
      17    C6      20.280138   17.894127   25.176342 C.3        1 MOL1        -0.1500
      18    H12     21.041353   17.542482   25.885559 H          1 MOL1         0.0948
      19    H13     19.377161   17.309199   25.395837 H          1 MOL1         0.0948
      20    C7      20.008903   19.392457   25.447051 C.3        1 MOL1         0.1162
      21    H14     20.801010   19.978770   24.971456 H          1 MOL1         0.0910
      22    C8      20.037692   19.679051   26.957279 C.3        1 MOL1        -0.2491
      23    H15     19.860491   20.743591   27.154325 H          1 MOL1         0.0959
      24    H16     19.269310   19.100689   27.485590 H          1 MOL1         0.0959
      25    H17     21.014473   19.421528   27.385480 H          1 MOL1         0.0959
      26    N1      18.700435   19.856389   24.867861 N.4        1 MOL1        -0.5987
      27    H18     18.560558   20.860314   25.015081 H          1 MOL1         0.3605
      28    H19     17.910279   19.369449   25.299670 H          1 MOL1         0.3605
      29    H20     18.664081   19.677996   23.859693 H          1 MOL1         0.3605
@<TRIPOS>BOND
    1     1     2    1
    2     1     3    1
    3     1     4    1
    4     1     5    1
    5     5     6    1
    6     5     7    1
    7     5     8    1
    8     8     9    1
    9     8    10    1
   10     8    11    1
   11    11    12    1
   12    11    13    1
   13    11    14    1
   14    14    15    1
   15    14    16    1
   16    14    17    1
   17    17    18    1
   18    17    19    1
   19    17    20    1
   20    20    21    1
   21    20    22    1
   22    22    23    1
   23    22    24    1
   24    22    25    1
   25    20    26    1
   26    26    27    1
   27    26    28    1
   28    26    29    1
@<TRIPOS>SUBSTRUCTURE
       1 MOL1            1 RESIDUE      1      MOL     
@<SCITEGIC>MOL_PROPERTY
VM2 Rank
SciTegic.value.IntegerValue
210

@<SCITEGIC>MOL_PROPERTY
Conf_Id
SciTegic.value.IntegerValue
1528

@<SCITEGIC>MOL_PROPERTY
Probability
SciTegic.value.DoubleValue
0.00

@<SCITEGIC>MOL_PROPERTY
Sum Probability
SciTegic.value.DoubleValue
100.00

@<SCITEGIC>MOL_PROPERTY
Delta G
SciTegic.value.DoubleValue
7.120

@<SCITEGIC>MOL_PROPERTY
G
SciTegic.value.DoubleValue
40.822

@<SCITEGIC>MOL_PROPERTY
E
SciTegic.value.DoubleValue
2.728

@<SCITEGIC>MOL_PROPERTY
-TS
SciTegic.value.DoubleValue
38.094

@<SCITEGIC>MOL_PROPERTY
U+W
SciTegic.value.DoubleValue
-21.416

@<SCITEGIC>MOL_PROPERTY
U
SciTegic.value.DoubleValue
29.728

@<SCITEGIC>MOL_PROPERTY
W
SciTegic.value.DoubleValue
-51.144

@<SCITEGIC>MOL_PROPERTY
W(PB)
SciTegic.value.DoubleValue
-53.597

@<SCITEGIC>MOL_PROPERTY
W(SA)
SciTegic.value.DoubleValue
2.453

@<SCITEGIC>MOL_PROPERTY
Valence
SciTegic.value.DoubleValue
7.447

@<SCITEGIC>MOL_PROPERTY
Coulomb
SciTegic.value.DoubleValue
21.445

@<SCITEGIC>MOL_PROPERTY
VdW
SciTegic.value.DoubleValue
0.835

@<SCITEGIC>MOL_PROPERTY
VdW6
SciTegic.value.DoubleValue
-10.815

@<SCITEGIC>MOL_PROPERTY
VdW12
SciTegic.value.DoubleValue
11.650

@<SCITEGIC>MOL_PROPERTY
Bond
SciTegic.value.DoubleValue
0.282

@<SCITEGIC>MOL_PROPERTY
Angle
SciTegic.value.DoubleValue
2.109

@<SCITEGIC>MOL_PROPERTY
Pdih
SciTegic.value.DoubleValue
5.057

@<SCITEGIC>MOL_PROPERTY
Idih
SciTegic.value.DoubleValue
0.000

@<SCITEGIC>MOL_PROPERTY
Tether
SciTegic.value.DoubleValue
0.000

@<TRIPOS>MOLECULE
guest-s15_vm2.mol2 : vm2 ligand conformer 211
          29          28           1
SMALL
USER_CHARGES
 
@<TRIPOS>ATOM
       1    C1      18.247468   19.382216   20.062625 C.3        1 MOL1        -0.2426
       2    H1      18.454113   20.414201   19.750304 H          1 MOL1         0.0959
       3    H2      18.006381   18.800023   19.163759 H          1 MOL1         0.0959
       4    H3      17.358520   19.391130   20.706753 H          1 MOL1         0.0959
       5    C2      19.459440   18.772071   20.797799 C.3        1 MOL1        -0.1410
       6    H4      20.322462   18.743863   20.117879 H          1 MOL1         0.0948
       7    H5      19.234727   17.730865   21.068427 H          1 MOL1         0.0948
       8    C3      19.821031   19.574391   22.066797 C.3        1 MOL1        -0.1435
       9    H6      20.048359   20.612688   21.787878 H          1 MOL1         0.0948
      10    H7      18.949298   19.612165   22.729471 H          1 MOL1         0.0948
      11    C4      21.037122   18.963827   22.804617 C.3        1 MOL1        -0.1435
      12    H8      21.900662   19.004101   22.126155 H          1 MOL1         0.0948
      13    H9      20.874759   17.897812   23.011212 H          1 MOL1         0.0948
      14    C5      21.403094   19.717856   24.108599 C.3        1 MOL1        -0.1435
      15    H10     22.493740   19.851923   24.114208 H          1 MOL1         0.0948
      16    H11     20.995710   20.737463   24.095841 H          1 MOL1         0.0948
      17    C6      21.030971   18.992039   25.434440 C.3        1 MOL1        -0.1500
      18    H12     21.506056   19.549422   26.252330 H          1 MOL1         0.0948
      19    H13     21.499206   17.999124   25.455772 H          1 MOL1         0.0948
      20    C7      19.528359   18.863691   25.792253 C.3        1 MOL1         0.1162
      21    H14     19.481159   18.680892   26.870244 H          1 MOL1         0.0910
      22    C8      18.850583   17.655200   25.121712 C.3        1 MOL1        -0.2491
      23    H15     18.772899   17.766947   24.036959 H          1 MOL1         0.0959
      24    H16     19.406989   16.733067   25.329930 H          1 MOL1         0.0959
      25    H17     17.835218   17.521981   25.514568 H          1 MOL1         0.0959
      26    N1      18.757931   20.134709   25.565159 N.4        1 MOL1        -0.5987
      27    H18     17.780308   20.037208   25.854169 H          1 MOL1         0.3605
      28    H19     18.767951   20.397977   24.577235 H          1 MOL1         0.3605
      29    H20     19.159048   20.913004   26.096440 H          1 MOL1         0.3605
@<TRIPOS>BOND
    1     1     2    1
    2     1     3    1
    3     1     4    1
    4     1     5    1
    5     5     6    1
    6     5     7    1
    7     5     8    1
    8     8     9    1
    9     8    10    1
   10     8    11    1
   11    11    12    1
   12    11    13    1
   13    11    14    1
   14    14    15    1
   15    14    16    1
   16    14    17    1
   17    17    18    1
   18    17    19    1
   19    17    20    1
   20    20    21    1
   21    20    22    1
   22    22    23    1
   23    22    24    1
   24    22    25    1
   25    20    26    1
   26    26    27    1
   27    26    28    1
   28    26    29    1
@<TRIPOS>SUBSTRUCTURE
       1 MOL1            1 RESIDUE      1      MOL     
@<SCITEGIC>MOL_PROPERTY
VM2 Rank
SciTegic.value.IntegerValue
211

@<SCITEGIC>MOL_PROPERTY
Conf_Id
SciTegic.value.IntegerValue
1349

@<SCITEGIC>MOL_PROPERTY
Probability
SciTegic.value.DoubleValue
0.00

@<SCITEGIC>MOL_PROPERTY
Sum Probability
SciTegic.value.DoubleValue
100.00

@<SCITEGIC>MOL_PROPERTY
Delta G
SciTegic.value.DoubleValue
7.405

@<SCITEGIC>MOL_PROPERTY
G
SciTegic.value.DoubleValue
41.108

@<SCITEGIC>MOL_PROPERTY
E
SciTegic.value.DoubleValue
2.873

@<SCITEGIC>MOL_PROPERTY
-TS
SciTegic.value.DoubleValue
38.234

@<SCITEGIC>MOL_PROPERTY
U+W
SciTegic.value.DoubleValue
-21.271

@<SCITEGIC>MOL_PROPERTY
U
SciTegic.value.DoubleValue
31.279

@<SCITEGIC>MOL_PROPERTY
W
SciTegic.value.DoubleValue
-52.551

@<SCITEGIC>MOL_PROPERTY
W(PB)
SciTegic.value.DoubleValue
-54.968

@<SCITEGIC>MOL_PROPERTY
W(SA)
SciTegic.value.DoubleValue
2.418

@<SCITEGIC>MOL_PROPERTY
Valence
SciTegic.value.DoubleValue
9.217

@<SCITEGIC>MOL_PROPERTY
Coulomb
SciTegic.value.DoubleValue
21.424

@<SCITEGIC>MOL_PROPERTY
VdW
SciTegic.value.DoubleValue
0.639

@<SCITEGIC>MOL_PROPERTY
VdW6
SciTegic.value.DoubleValue
-11.253

@<SCITEGIC>MOL_PROPERTY
VdW12
SciTegic.value.DoubleValue
11.891

@<SCITEGIC>MOL_PROPERTY
Bond
SciTegic.value.DoubleValue
0.349

@<SCITEGIC>MOL_PROPERTY
Angle
SciTegic.value.DoubleValue
3.017

@<SCITEGIC>MOL_PROPERTY
Pdih
SciTegic.value.DoubleValue
5.852

@<SCITEGIC>MOL_PROPERTY
Idih
SciTegic.value.DoubleValue
0.000

@<SCITEGIC>MOL_PROPERTY
Tether
SciTegic.value.DoubleValue
0.000

@<TRIPOS>MOLECULE
guest-s15_vm2.mol2 : vm2 ligand conformer 212
          29          28           1
SMALL
USER_CHARGES
 
@<TRIPOS>ATOM
       1    C1      18.412738   18.554609   20.285618 C.3        1 MOL1        -0.2426
       2    H1      18.958670   17.612181   20.147678 H          1 MOL1         0.0959
       3    H2      17.340715   18.321093   20.321139 H          1 MOL1         0.0959
       4    H3      18.590999   19.185091   19.404736 H          1 MOL1         0.0959
       5    C2      18.858278   19.268772   21.578934 C.3        1 MOL1        -0.1410
       6    H4      18.624559   18.626493   22.434742 H          1 MOL1         0.0948
       7    H5      18.272236   20.190167   21.702036 H          1 MOL1         0.0948
       8    C3      20.366928   19.611121   21.547973 C.3        1 MOL1        -0.1435
       9    H6      20.962641   18.698990   21.405808 H          1 MOL1         0.0948
      10    H7      20.554454   20.233933   20.662265 H          1 MOL1         0.0948
      11    C4      20.862550   20.384917   22.797974 C.3        1 MOL1        -0.1435
      12    H8      20.058490   20.997459   23.219733 H          1 MOL1         0.0948
      13    H9      21.615298   21.110124   22.458691 H          1 MOL1         0.0948
      14    C5      21.545453   19.507522   23.883180 C.3        1 MOL1        -0.1435
      15    H10     22.421492   19.029857   23.422955 H          1 MOL1         0.0948
      16    H11     21.950187   20.160850   24.668472 H          1 MOL1         0.0948
      17    C6      20.688642   18.395560   24.547055 C.3        1 MOL1        -0.1500
      18    H12     21.388263   17.705196   25.036828 H          1 MOL1         0.0948
      19    H13     20.173463   17.792184   23.791727 H          1 MOL1         0.0948
      20    C7      19.698925   18.892843   25.627586 C.3        1 MOL1         0.1162
      21    H14     20.253588   19.519285   26.332849 H          1 MOL1         0.0910
      22    C8      19.117117   17.699163   26.402169 C.3        1 MOL1        -0.2491
      23    H15     18.442066   18.042543   27.195806 H          1 MOL1         0.0959
      24    H16     18.553023   17.032230   25.738130 H          1 MOL1         0.0959
      25    H17     19.915139   17.114207   26.876211 H          1 MOL1         0.0959
      26    N1      18.585371   19.741492   25.083511 N.4        1 MOL1        -0.5987
      27    H18     18.953397   20.558170   24.590443 H          1 MOL1         0.3605
      28    H19     17.976398   20.081965   25.833293 H          1 MOL1         0.3605
      29    H20     18.002959   19.215101   24.427961 H          1 MOL1         0.3605
@<TRIPOS>BOND
    1     1     2    1
    2     1     3    1
    3     1     4    1
    4     1     5    1
    5     5     6    1
    6     5     7    1
    7     5     8    1
    8     8     9    1
    9     8    10    1
   10     8    11    1
   11    11    12    1
   12    11    13    1
   13    11    14    1
   14    14    15    1
   15    14    16    1
   16    14    17    1
   17    17    18    1
   18    17    19    1
   19    17    20    1
   20    20    21    1
   21    20    22    1
   22    22    23    1
   23    22    24    1
   24    22    25    1
   25    20    26    1
   26    26    27    1
   27    26    28    1
   28    26    29    1
@<TRIPOS>SUBSTRUCTURE
       1 MOL1            1 RESIDUE      1      MOL     
@<SCITEGIC>MOL_PROPERTY
VM2 Rank
SciTegic.value.IntegerValue
212

@<SCITEGIC>MOL_PROPERTY
Conf_Id
SciTegic.value.IntegerValue
690

@<SCITEGIC>MOL_PROPERTY
Probability
SciTegic.value.DoubleValue
0.00

@<SCITEGIC>MOL_PROPERTY
Sum Probability
SciTegic.value.DoubleValue
100.00

@<SCITEGIC>MOL_PROPERTY
Delta G
SciTegic.value.DoubleValue
7.653

@<SCITEGIC>MOL_PROPERTY
G
SciTegic.value.DoubleValue
41.356

@<SCITEGIC>MOL_PROPERTY
E
SciTegic.value.DoubleValue
3.419

@<SCITEGIC>MOL_PROPERTY
-TS
SciTegic.value.DoubleValue
37.937

@<SCITEGIC>MOL_PROPERTY
U+W
SciTegic.value.DoubleValue
-20.726

@<SCITEGIC>MOL_PROPERTY
U
SciTegic.value.DoubleValue
31.271

@<SCITEGIC>MOL_PROPERTY
W
SciTegic.value.DoubleValue
-51.997

@<SCITEGIC>MOL_PROPERTY
W(PB)
SciTegic.value.DoubleValue
-54.399

@<SCITEGIC>MOL_PROPERTY
W(SA)
SciTegic.value.DoubleValue
2.402

@<SCITEGIC>MOL_PROPERTY
Valence
SciTegic.value.DoubleValue
8.407

@<SCITEGIC>MOL_PROPERTY
Coulomb
SciTegic.value.DoubleValue
22.353

@<SCITEGIC>MOL_PROPERTY
VdW
SciTegic.value.DoubleValue
0.511

@<SCITEGIC>MOL_PROPERTY
VdW6
SciTegic.value.DoubleValue
-11.245

@<SCITEGIC>MOL_PROPERTY
VdW12
SciTegic.value.DoubleValue
11.756

@<SCITEGIC>MOL_PROPERTY
Bond
SciTegic.value.DoubleValue
0.373

@<SCITEGIC>MOL_PROPERTY
Angle
SciTegic.value.DoubleValue
3.094

@<SCITEGIC>MOL_PROPERTY
Pdih
SciTegic.value.DoubleValue
4.940

@<SCITEGIC>MOL_PROPERTY
Idih
SciTegic.value.DoubleValue
0.000

@<SCITEGIC>MOL_PROPERTY
Tether
SciTegic.value.DoubleValue
0.000

@<TRIPOS>MOLECULE
guest-s15_vm2.mol2 : vm2 ligand conformer 213
          29          28           1
SMALL
USER_CHARGES
 
@<TRIPOS>ATOM
       1    C1      19.234095   20.856928   21.492588 C.3        1 MOL1        -0.2426
       2    H1      18.260164   20.889066   20.987179 H          1 MOL1         0.0959
       3    H2      19.052024   20.708263   22.561047 H          1 MOL1         0.0959
       4    H3      19.707848   21.838970   21.366253 H          1 MOL1         0.0959
       5    C2      20.126103   19.743974   20.896197 C.3        1 MOL1        -0.1410
       6    H4      21.133896   19.777557   21.331286 H          1 MOL1         0.0948
       7    H5      20.256404   19.956475   19.825825 H          1 MOL1         0.0948
       8    C3      19.520290   18.325757   21.045047 C.3        1 MOL1        -0.1435
       9    H6      18.423075   18.377427   21.022613 H          1 MOL1         0.0948
      10    H7      19.803257   17.746970   20.154936 H          1 MOL1         0.0948
      11    C4      19.991159   17.518128   22.284898 C.3        1 MOL1        -0.1435
      12    H8      21.082763   17.396024   22.262572 H          1 MOL1         0.0948
      13    H9      19.582951   16.503014   22.183151 H          1 MOL1         0.0948
      14    C5      19.539344   18.071892   23.660682 C.3        1 MOL1        -0.1435
      15    H10     18.585378   18.603306   23.553542 H          1 MOL1         0.0948
      16    H11     19.335443   17.214444   24.315276 H          1 MOL1         0.0948
      17    C6      20.611555   18.966537   24.342309 C.3        1 MOL1        -0.1500
      18    H12     20.899393   19.784729   23.673445 H          1 MOL1         0.0948
      19    H13     21.524532   18.376433   24.496470 H          1 MOL1         0.0948
      20    C7      20.185422   19.575039   25.699500 C.3        1 MOL1         0.1162
      21    H14     21.018336   20.189051   26.055844 H          1 MOL1         0.0910
      22    C8      19.918629   18.494218   26.761560 C.3        1 MOL1        -0.2491
      23    H15     19.029453   17.899499   26.520875 H          1 MOL1         0.0959
      24    H16     20.774802   17.813913   26.849386 H          1 MOL1         0.0959
      25    H17     19.757418   18.954145   27.744240 H          1 MOL1         0.0959
      26    N1      19.009403   20.503527   25.571219 N.4        1 MOL1        -0.5987
      27    H18     19.200427   21.262210   24.910893 H          1 MOL1         0.3605
      28    H19     18.774331   20.932665   26.470906 H          1 MOL1         0.3605
      29    H20     18.178476   20.005352   25.242576 H          1 MOL1         0.3605
@<TRIPOS>BOND
    1     1     2    1
    2     1     3    1
    3     1     4    1
    4     1     5    1
    5     5     6    1
    6     5     7    1
    7     5     8    1
    8     8     9    1
    9     8    10    1
   10     8    11    1
   11    11    12    1
   12    11    13    1
   13    11    14    1
   14    14    15    1
   15    14    16    1
   16    14    17    1
   17    17    18    1
   18    17    19    1
   19    17    20    1
   20    20    21    1
   21    20    22    1
   22    22    23    1
   23    22    24    1
   24    22    25    1
   25    20    26    1
   26    26    27    1
   27    26    28    1
   28    26    29    1
@<TRIPOS>SUBSTRUCTURE
       1 MOL1            1 RESIDUE      1      MOL     
@<SCITEGIC>MOL_PROPERTY
VM2 Rank
SciTegic.value.IntegerValue
213

@<SCITEGIC>MOL_PROPERTY
Conf_Id
SciTegic.value.IntegerValue
224

@<SCITEGIC>MOL_PROPERTY
Probability
SciTegic.value.DoubleValue
0.00

@<SCITEGIC>MOL_PROPERTY
Sum Probability
SciTegic.value.DoubleValue
100.00

@<SCITEGIC>MOL_PROPERTY
Delta G
SciTegic.value.DoubleValue
7.686

@<SCITEGIC>MOL_PROPERTY
G
SciTegic.value.DoubleValue
41.388

@<SCITEGIC>MOL_PROPERTY
E
SciTegic.value.DoubleValue
2.824

@<SCITEGIC>MOL_PROPERTY
-TS
SciTegic.value.DoubleValue
38.564

@<SCITEGIC>MOL_PROPERTY
U+W
SciTegic.value.DoubleValue
-21.321

@<SCITEGIC>MOL_PROPERTY
U
SciTegic.value.DoubleValue
31.481

@<SCITEGIC>MOL_PROPERTY
W
SciTegic.value.DoubleValue
-52.802

@<SCITEGIC>MOL_PROPERTY
W(PB)
SciTegic.value.DoubleValue
-55.148

@<SCITEGIC>MOL_PROPERTY
W(SA)
SciTegic.value.DoubleValue
2.346

@<SCITEGIC>MOL_PROPERTY
Valence
SciTegic.value.DoubleValue
9.332

@<SCITEGIC>MOL_PROPERTY
Coulomb
SciTegic.value.DoubleValue
21.340

@<SCITEGIC>MOL_PROPERTY
VdW
SciTegic.value.DoubleValue
0.810

@<SCITEGIC>MOL_PROPERTY
VdW6
SciTegic.value.DoubleValue
-11.777

@<SCITEGIC>MOL_PROPERTY
VdW12
SciTegic.value.DoubleValue
12.587

@<SCITEGIC>MOL_PROPERTY
Bond
SciTegic.value.DoubleValue
0.375

@<SCITEGIC>MOL_PROPERTY
Angle
SciTegic.value.DoubleValue
2.763

@<SCITEGIC>MOL_PROPERTY
Pdih
SciTegic.value.DoubleValue
6.194

@<SCITEGIC>MOL_PROPERTY
Idih
SciTegic.value.DoubleValue
0.000

@<SCITEGIC>MOL_PROPERTY
Tether
SciTegic.value.DoubleValue
0.000

@<TRIPOS>MOLECULE
guest-s15_vm2.mol2 : vm2 ligand conformer 214
          29          28           1
SMALL
USER_CHARGES
 
@<TRIPOS>ATOM
       1    C1      19.040773   19.660945   19.781124 C.3        1 MOL1        -0.2426
       2    H1      18.340238   20.201602   19.131608 H          1 MOL1         0.0959
       3    H2      20.002570   19.594581   19.256152 H          1 MOL1         0.0959
       4    H3      18.650570   18.644121   19.914046 H          1 MOL1         0.0959
       5    C2      19.196159   20.389675   21.134839 C.3        1 MOL1        -0.1410
       6    H4      18.224584   20.423550   21.646716 H          1 MOL1         0.0948
       7    H5      19.480271   21.434219   20.944688 H          1 MOL1         0.0948
       8    C3      20.257918   19.745007   22.057839 C.3        1 MOL1        -0.1435
       9    H6      21.231863   19.751499   21.548979 H          1 MOL1         0.0948
      10    H7      20.386861   20.377958   22.943821 H          1 MOL1         0.0948
      11    C4      19.911494   18.291257   22.472161 C.3        1 MOL1        -0.1435
      12    H8      20.032899   17.647484   21.590412 H          1 MOL1         0.0948
      13    H9      18.856428   18.199212   22.761661 H          1 MOL1         0.0948
      14    C5      20.827674   17.746014   23.597405 C.3        1 MOL1        -0.1435
      15    H10     21.025102   16.685527   23.387885 H          1 MOL1         0.0948
      16    H11     21.809108   18.238776   23.558547 H          1 MOL1         0.0948
      17    C6      20.248412   17.831869   25.036317 C.3        1 MOL1        -0.1500
      18    H12     20.968409   17.338091   25.702551 H          1 MOL1         0.0948
      19    H13     19.326012   17.240109   25.104791 H          1 MOL1         0.0948
      20    C7      19.990230   19.262333   25.564046 C.3        1 MOL1         0.1162
      21    H14     20.819850   19.902176   25.248298 H          1 MOL1         0.0910
      22    C8      19.935888   19.266403   27.100502 C.3        1 MOL1        -0.2491
      23    H15     19.126810   18.624191   27.470602 H          1 MOL1         0.0959
      24    H16     20.880694   18.905760   27.526000 H          1 MOL1         0.0959
      25    H17     19.768013   20.281632   27.480767 H          1 MOL1         0.0959
      26    N1      18.727453   19.862497   25.009767 N.4        1 MOL1        -0.5987
      27    H18     18.745919   19.866062   23.985427 H          1 MOL1         0.3605
      28    H19     18.600764   20.828231   25.326692 H          1 MOL1         0.3605
      29    H20     17.903772   19.331250   25.305159 H          1 MOL1         0.3605
@<TRIPOS>BOND
    1     1     2    1
    2     1     3    1
    3     1     4    1
    4     1     5    1
    5     5     6    1
    6     5     7    1
    7     5     8    1
    8     8     9    1
    9     8    10    1
   10     8    11    1
   11    11    12    1
   12    11    13    1
   13    11    14    1
   14    14    15    1
   15    14    16    1
   16    14    17    1
   17    17    18    1
   18    17    19    1
   19    17    20    1
   20    20    21    1
   21    20    22    1
   22    22    23    1
   23    22    24    1
   24    22    25    1
   25    20    26    1
   26    26    27    1
   27    26    28    1
   28    26    29    1
@<TRIPOS>SUBSTRUCTURE
       1 MOL1            1 RESIDUE      1      MOL     
@<SCITEGIC>MOL_PROPERTY
VM2 Rank
SciTegic.value.IntegerValue
214

@<SCITEGIC>MOL_PROPERTY
Conf_Id
SciTegic.value.IntegerValue
616

@<SCITEGIC>MOL_PROPERTY
Probability
SciTegic.value.DoubleValue
0.00

@<SCITEGIC>MOL_PROPERTY
Sum Probability
SciTegic.value.DoubleValue
100.00

@<SCITEGIC>MOL_PROPERTY
Delta G
SciTegic.value.DoubleValue
7.691

@<SCITEGIC>MOL_PROPERTY
G
SciTegic.value.DoubleValue
41.393

@<SCITEGIC>MOL_PROPERTY
E
SciTegic.value.DoubleValue
3.121

@<SCITEGIC>MOL_PROPERTY
-TS
SciTegic.value.DoubleValue
38.272

@<SCITEGIC>MOL_PROPERTY
U+W
SciTegic.value.DoubleValue
-21.023

@<SCITEGIC>MOL_PROPERTY
U
SciTegic.value.DoubleValue
30.361

@<SCITEGIC>MOL_PROPERTY
W
SciTegic.value.DoubleValue
-51.385

@<SCITEGIC>MOL_PROPERTY
W(PB)
SciTegic.value.DoubleValue
-53.824

@<SCITEGIC>MOL_PROPERTY
W(SA)
SciTegic.value.DoubleValue
2.439

@<SCITEGIC>MOL_PROPERTY
Valence
SciTegic.value.DoubleValue
7.956

@<SCITEGIC>MOL_PROPERTY
Coulomb
SciTegic.value.DoubleValue
21.427

@<SCITEGIC>MOL_PROPERTY
VdW
SciTegic.value.DoubleValue
0.978

@<SCITEGIC>MOL_PROPERTY
VdW6
SciTegic.value.DoubleValue
-11.470

@<SCITEGIC>MOL_PROPERTY
VdW12
SciTegic.value.DoubleValue
12.448

@<SCITEGIC>MOL_PROPERTY
Bond
SciTegic.value.DoubleValue
0.321

@<SCITEGIC>MOL_PROPERTY
Angle
SciTegic.value.DoubleValue
2.290

@<SCITEGIC>MOL_PROPERTY
Pdih
SciTegic.value.DoubleValue
5.345

@<SCITEGIC>MOL_PROPERTY
Idih
SciTegic.value.DoubleValue
0.000

@<SCITEGIC>MOL_PROPERTY
Tether
SciTegic.value.DoubleValue
0.000

@<TRIPOS>MOLECULE
guest-s15_vm2.mol2 : vm2 ligand conformer 215
          29          28           1
SMALL
USER_CHARGES
 
@<TRIPOS>ATOM
       1    C1      18.174133   19.327233   20.125148 C.3        1 MOL1        -0.2426
       2    H1      18.368849   18.349294   19.665800 H          1 MOL1         0.0959
       3    H2      17.305024   19.226599   20.788262 H          1 MOL1         0.0959
       4    H3      17.907033   20.028438   19.323878 H          1 MOL1         0.0959
       5    C2      19.409487   19.831383   20.900517 C.3        1 MOL1        -0.1410
       6    H4      19.195888   20.824981   21.318623 H          1 MOL1         0.0948
       7    H5      20.251158   19.955448   20.204646 H          1 MOL1         0.0948
       8    C3      19.808663   18.859562   22.032369 C.3        1 MOL1        -0.1435
       9    H6      18.955482   18.714700   22.703843 H          1 MOL1         0.0948
      10    H7      20.030891   17.873033   21.602171 H          1 MOL1         0.0948
      11    C4      21.047407   19.363498   22.812424 C.3        1 MOL1        -0.1435
      12    H8      20.911140   20.403282   23.137741 H          1 MOL1         0.0948
      13    H9      21.898171   19.384041   22.117011 H          1 MOL1         0.0948
      14    C5      21.422857   18.463409   24.018909 C.3        1 MOL1        -0.1435
      15    H10     21.013490   17.452403   23.892658 H          1 MOL1         0.0948
      16    H11     22.513494   18.330339   24.004333 H          1 MOL1         0.0948
      17    C6      21.054936   19.038415   25.417636 C.3        1 MOL1        -0.1500
      18    H12     21.523294   20.024158   25.537060 H          1 MOL1         0.0948
      19    H13     21.526488   18.400911   26.177150 H          1 MOL1         0.0948
      20    C7      19.551951   19.151583   25.774081 C.3        1 MOL1         0.1162
      21    H14     19.497121   19.470177   26.819631 H          1 MOL1         0.0910
      22    C8      18.825921   17.798216   25.676943 C.3        1 MOL1        -0.2491
      23    H15     17.798743   17.885851   26.051518 H          1 MOL1         0.0959
      24    H16     18.776852   17.430551   24.646326 H          1 MOL1         0.0959
      25    H17     19.336882   17.041064   26.284495 H          1 MOL1         0.0959
      26    N1      18.840643   20.222702   24.995973 N.4        1 MOL1        -0.5987
      27    H18     17.849300   20.273989   25.248067 H          1 MOL1         0.3605
      28    H19     18.904039   20.044798   23.990263 H          1 MOL1         0.3605
      29    H20     19.250283   21.144640   25.172482 H          1 MOL1         0.3605
@<TRIPOS>BOND
    1     1     2    1
    2     1     3    1
    3     1     4    1
    4     1     5    1
    5     5     6    1
    6     5     7    1
    7     5     8    1
    8     8     9    1
    9     8    10    1
   10     8    11    1
   11    11    12    1
   12    11    13    1
   13    11    14    1
   14    14    15    1
   15    14    16    1
   16    14    17    1
   17    17    18    1
   18    17    19    1
   19    17    20    1
   20    20    21    1
   21    20    22    1
   22    22    23    1
   23    22    24    1
   24    22    25    1
   25    20    26    1
   26    26    27    1
   27    26    28    1
   28    26    29    1
@<TRIPOS>SUBSTRUCTURE
       1 MOL1            1 RESIDUE      1      MOL     
@<SCITEGIC>MOL_PROPERTY
VM2 Rank
SciTegic.value.IntegerValue
215

@<SCITEGIC>MOL_PROPERTY
Conf_Id
SciTegic.value.IntegerValue
1530

@<SCITEGIC>MOL_PROPERTY
Probability
SciTegic.value.DoubleValue
0.00

@<SCITEGIC>MOL_PROPERTY
Sum Probability
SciTegic.value.DoubleValue
100.00

@<SCITEGIC>MOL_PROPERTY
Delta G
SciTegic.value.DoubleValue
7.851

@<SCITEGIC>MOL_PROPERTY
G
SciTegic.value.DoubleValue
41.553

@<SCITEGIC>MOL_PROPERTY
E
SciTegic.value.DoubleValue
3.007

@<SCITEGIC>MOL_PROPERTY
-TS
SciTegic.value.DoubleValue
38.546

@<SCITEGIC>MOL_PROPERTY
U+W
SciTegic.value.DoubleValue
-21.138

@<SCITEGIC>MOL_PROPERTY
U
SciTegic.value.DoubleValue
30.269

@<SCITEGIC>MOL_PROPERTY
W
SciTegic.value.DoubleValue
-51.406

@<SCITEGIC>MOL_PROPERTY
W(PB)
SciTegic.value.DoubleValue
-53.817

@<SCITEGIC>MOL_PROPERTY
W(SA)
SciTegic.value.DoubleValue
2.411

@<SCITEGIC>MOL_PROPERTY
Valence
SciTegic.value.DoubleValue
8.045

@<SCITEGIC>MOL_PROPERTY
Coulomb
SciTegic.value.DoubleValue
21.611

@<SCITEGIC>MOL_PROPERTY
VdW
SciTegic.value.DoubleValue
0.612

@<SCITEGIC>MOL_PROPERTY
VdW6
SciTegic.value.DoubleValue
-11.609

@<SCITEGIC>MOL_PROPERTY
VdW12
SciTegic.value.DoubleValue
12.221

@<SCITEGIC>MOL_PROPERTY
Bond
SciTegic.value.DoubleValue
0.344

@<SCITEGIC>MOL_PROPERTY
Angle
SciTegic.value.DoubleValue
2.670

@<SCITEGIC>MOL_PROPERTY
Pdih
SciTegic.value.DoubleValue
5.031

@<SCITEGIC>MOL_PROPERTY
Idih
SciTegic.value.DoubleValue
0.000

@<SCITEGIC>MOL_PROPERTY
Tether
SciTegic.value.DoubleValue
0.000

@<TRIPOS>MOLECULE
guest-s15_vm2.mol2 : vm2 ligand conformer 216
          29          28           1
SMALL
USER_CHARGES
 
@<TRIPOS>ATOM
       1    C1      19.954125   20.323454   20.030553 C.3        1 MOL1        -0.2426
       2    H1      18.998554   20.761888   19.714727 H          1 MOL1         0.0959
       3    H2      20.336929   20.919153   20.866849 H          1 MOL1         0.0959
       4    H3      20.659781   20.426582   19.196108 H          1 MOL1         0.0959
       5    C2      19.777847   18.834688   20.410127 C.3        1 MOL1        -0.1410
       6    H4      20.752126   18.379943   20.637178 H          1 MOL1         0.0948
       7    H5      19.394942   18.302507   19.528066 H          1 MOL1         0.0948
       8    C3      18.792524   18.617618   21.587337 C.3        1 MOL1        -0.1435
       9    H6      18.071171   19.444876   21.637037 H          1 MOL1         0.0948
      10    H7      18.196746   17.719608   21.372777 H          1 MOL1         0.0948
      11    C4      19.463118   18.412818   22.970447 C.3        1 MOL1        -0.1435
      12    H8      20.100799   17.518720   22.938557 H          1 MOL1         0.0948
      13    H9      18.663841   18.202741   23.689657 H          1 MOL1         0.0948
      14    C5      20.293649   19.623657   23.460134 C.3        1 MOL1        -0.1435
      15    H10     21.073569   19.838044   22.719206 H          1 MOL1         0.0948
      16    H11     19.658175   20.518422   23.497519 H          1 MOL1         0.0948
      17    C6      21.012155   19.419917   24.824677 C.3        1 MOL1        -0.1500
      18    H12     21.601789   20.325414   25.018756 H          1 MOL1         0.0948
      19    H13     21.749715   18.611503   24.734538 H          1 MOL1         0.0948
      20    C7      20.125385   19.177611   26.073820 C.3        1 MOL1         0.1162
      21    H14     20.689167   19.550264   26.934636 H          1 MOL1         0.0910
      22    C8      19.873603   17.681525   26.338987 C.3        1 MOL1        -0.2491
      23    H15     19.285527   17.207220   25.547922 H          1 MOL1         0.0959
      24    H16     20.823062   17.138916   26.425811 H          1 MOL1         0.0959
      25    H17     19.332167   17.547037   27.283403 H          1 MOL1         0.0959
      26    N1      18.843593   19.964712   26.057919 N.4        1 MOL1        -0.5987
      27    H18     19.024544   20.969217   25.975170 H          1 MOL1         0.3605
      28    H19     18.302889   19.819252   26.915309 H          1 MOL1         0.3605
      29    H20     18.254552   19.691645   25.267339 H          1 MOL1         0.3605
@<TRIPOS>BOND
    1     1     2    1
    2     1     3    1
    3     1     4    1
    4     1     5    1
    5     5     6    1
    6     5     7    1
    7     5     8    1
    8     8     9    1
    9     8    10    1
   10     8    11    1
   11    11    12    1
   12    11    13    1
   13    11    14    1
   14    14    15    1
   15    14    16    1
   16    14    17    1
   17    17    18    1
   18    17    19    1
   19    17    20    1
   20    20    21    1
   21    20    22    1
   22    22    23    1
   23    22    24    1
   24    22    25    1
   25    20    26    1
   26    26    27    1
   27    26    28    1
   28    26    29    1
@<TRIPOS>SUBSTRUCTURE
       1 MOL1            1 RESIDUE      1      MOL     
@<SCITEGIC>MOL_PROPERTY
VM2 Rank
SciTegic.value.IntegerValue
216

@<SCITEGIC>MOL_PROPERTY
Conf_Id
SciTegic.value.IntegerValue
93

@<SCITEGIC>MOL_PROPERTY
Probability
SciTegic.value.DoubleValue
0.00

@<SCITEGIC>MOL_PROPERTY
Sum Probability
SciTegic.value.DoubleValue
100.00

@<SCITEGIC>MOL_PROPERTY
Delta G
SciTegic.value.DoubleValue
7.860

@<SCITEGIC>MOL_PROPERTY
G
SciTegic.value.DoubleValue
41.562

@<SCITEGIC>MOL_PROPERTY
E
SciTegic.value.DoubleValue
3.398

@<SCITEGIC>MOL_PROPERTY
-TS
SciTegic.value.DoubleValue
38.164

@<SCITEGIC>MOL_PROPERTY
U+W
SciTegic.value.DoubleValue
-20.747

@<SCITEGIC>MOL_PROPERTY
U
SciTegic.value.DoubleValue
31.583

@<SCITEGIC>MOL_PROPERTY
W
SciTegic.value.DoubleValue
-52.329

@<SCITEGIC>MOL_PROPERTY
W(PB)
SciTegic.value.DoubleValue
-54.755

@<SCITEGIC>MOL_PROPERTY
W(SA)
SciTegic.value.DoubleValue
2.425

@<SCITEGIC>MOL_PROPERTY
Valence
SciTegic.value.DoubleValue
9.577

@<SCITEGIC>MOL_PROPERTY
Coulomb
SciTegic.value.DoubleValue
20.656

@<SCITEGIC>MOL_PROPERTY
VdW
SciTegic.value.DoubleValue
1.349

@<SCITEGIC>MOL_PROPERTY
VdW6
SciTegic.value.DoubleValue
-11.328

@<SCITEGIC>MOL_PROPERTY
VdW12
SciTegic.value.DoubleValue
12.677

@<SCITEGIC>MOL_PROPERTY
Bond
SciTegic.value.DoubleValue
0.393

@<SCITEGIC>MOL_PROPERTY
Angle
SciTegic.value.DoubleValue
3.220

@<SCITEGIC>MOL_PROPERTY
Pdih
SciTegic.value.DoubleValue
5.965

@<SCITEGIC>MOL_PROPERTY
Idih
SciTegic.value.DoubleValue
0.000

@<SCITEGIC>MOL_PROPERTY
Tether
SciTegic.value.DoubleValue
0.000

@<TRIPOS>MOLECULE
guest-s15_vm2.mol2 : vm2 ligand conformer 217
          29          28           1
SMALL
USER_CHARGES
 
@<TRIPOS>ATOM
       1    C1      18.353815   18.849150   20.128415 C.3        1 MOL1        -0.2426
       2    H1      17.547062   18.449586   20.756674 H          1 MOL1         0.0959
       3    H2      18.043275   19.835104   19.758705 H          1 MOL1         0.0959
       4    H3      18.466477   18.184775   19.261845 H          1 MOL1         0.0959
       5    C2      19.676586   18.943595   20.917814 C.3        1 MOL1        -0.1410
       6    H4      20.470000   19.313762   20.253618 H          1 MOL1         0.0948
       7    H5      19.976172   17.936400   21.235429 H          1 MOL1         0.0948
       8    C3      19.542851   19.879741   22.142300 C.3        1 MOL1        -0.1435
       9    H6      19.226679   20.871765   21.790834 H          1 MOL1         0.0948
      10    H7      18.741332   19.512831   22.793070 H          1 MOL1         0.0948
      11    C4      20.866448   20.037290   22.934949 C.3        1 MOL1        -0.1435
      12    H8      20.803917   20.907372   23.601578 H          1 MOL1         0.0948
      13    H9      21.664431   20.285470   22.221327 H          1 MOL1         0.0948
      14    C5      21.293698   18.780592   23.742429 C.3        1 MOL1        -0.1435
      15    H10     20.824774   17.872692   23.344887 H          1 MOL1         0.0948
      16    H11     22.370588   18.635834   23.579365 H          1 MOL1         0.0948
      17    C6      21.075815   18.873229   25.280420 C.3        1 MOL1        -0.1500
      18    H12     21.595318   19.759579   25.667446 H          1 MOL1         0.0948
      19    H13     21.583143   18.016284   25.742895 H          1 MOL1         0.0948
      20    C7      19.615313   18.880737   25.796014 C.3        1 MOL1         0.1162
      21    H14     19.664087   18.829587   26.888114 H          1 MOL1         0.0910
      22    C8      18.821416   17.650982   25.320857 C.3        1 MOL1        -0.2491
      23    H15     17.837664   17.618801   25.804856 H          1 MOL1         0.0959
      24    H16     18.661506   17.658922   24.237044 H          1 MOL1         0.0959
      25    H17     19.349553   16.725306   25.580974 H          1 MOL1         0.0959
      26    N1      18.890058   20.160684   25.490803 N.4        1 MOL1        -0.5987
      27    H18     17.928965   20.140857   25.844029 H          1 MOL1         0.3605
      28    H19     18.853798   20.326128   24.482190 H          1 MOL1         0.3605
      29    H20     19.357911   20.964904   25.918841 H          1 MOL1         0.3605
@<TRIPOS>BOND
    1     1     2    1
    2     1     3    1
    3     1     4    1
    4     1     5    1
    5     5     6    1
    6     5     7    1
    7     5     8    1
    8     8     9    1
    9     8    10    1
   10     8    11    1
   11    11    12    1
   12    11    13    1
   13    11    14    1
   14    14    15    1
   15    14    16    1
   16    14    17    1
   17    17    18    1
   18    17    19    1
   19    17    20    1
   20    20    21    1
   21    20    22    1
   22    22    23    1
   23    22    24    1
   24    22    25    1
   25    20    26    1
   26    26    27    1
   27    26    28    1
   28    26    29    1
@<TRIPOS>SUBSTRUCTURE
       1 MOL1            1 RESIDUE      1      MOL     
@<SCITEGIC>MOL_PROPERTY
VM2 Rank
SciTegic.value.IntegerValue
217

@<SCITEGIC>MOL_PROPERTY
Conf_Id
SciTegic.value.IntegerValue
665

@<SCITEGIC>MOL_PROPERTY
Probability
SciTegic.value.DoubleValue
0.00

@<SCITEGIC>MOL_PROPERTY
Sum Probability
SciTegic.value.DoubleValue
100.00

@<SCITEGIC>MOL_PROPERTY
Delta G
SciTegic.value.DoubleValue
8.012

@<SCITEGIC>MOL_PROPERTY
G
SciTegic.value.DoubleValue
41.714

@<SCITEGIC>MOL_PROPERTY
E
SciTegic.value.DoubleValue
3.122

@<SCITEGIC>MOL_PROPERTY
-TS
SciTegic.value.DoubleValue
38.592

@<SCITEGIC>MOL_PROPERTY
U+W
SciTegic.value.DoubleValue
-21.023

@<SCITEGIC>MOL_PROPERTY
U
SciTegic.value.DoubleValue
31.074

@<SCITEGIC>MOL_PROPERTY
W
SciTegic.value.DoubleValue
-52.097

@<SCITEGIC>MOL_PROPERTY
W(PB)
SciTegic.value.DoubleValue
-54.487

@<SCITEGIC>MOL_PROPERTY
W(SA)
SciTegic.value.DoubleValue
2.390

@<SCITEGIC>MOL_PROPERTY
Valence
SciTegic.value.DoubleValue
8.726

@<SCITEGIC>MOL_PROPERTY
Coulomb
SciTegic.value.DoubleValue
21.603

@<SCITEGIC>MOL_PROPERTY
VdW
SciTegic.value.DoubleValue
0.745

@<SCITEGIC>MOL_PROPERTY
VdW6
SciTegic.value.DoubleValue
-12.039

@<SCITEGIC>MOL_PROPERTY
VdW12
SciTegic.value.DoubleValue
12.784

@<SCITEGIC>MOL_PROPERTY
Bond
SciTegic.value.DoubleValue
0.398

@<SCITEGIC>MOL_PROPERTY
Angle
SciTegic.value.DoubleValue
2.856

@<SCITEGIC>MOL_PROPERTY
Pdih
SciTegic.value.DoubleValue
5.472

@<SCITEGIC>MOL_PROPERTY
Idih
SciTegic.value.DoubleValue
0.000

@<SCITEGIC>MOL_PROPERTY
Tether
SciTegic.value.DoubleValue
0.000

@<TRIPOS>MOLECULE
guest-s15_vm2.mol2 : vm2 ligand conformer 218
          29          28           1
SMALL
USER_CHARGES
 
@<TRIPOS>ATOM
       1    C1      19.630505   18.940820   19.719805 C.3        1 MOL1        -0.2426
       2    H1      20.673321   18.635992   19.872204 H          1 MOL1         0.0959
       3    H2      19.230452   18.344756   18.889406 H          1 MOL1         0.0959
       4    H3      19.620979   19.994497   19.412102 H          1 MOL1         0.0959
       5    C2      18.784982   18.726977   20.995551 C.3        1 MOL1        -0.1410
       6    H4      18.834778   17.671796   21.298469 H          1 MOL1         0.0948
       7    H5      17.730896   18.930006   20.760143 H          1 MOL1         0.0948
       8    C3      19.213694   19.630837   22.176225 C.3        1 MOL1        -0.1435
       9    H6      19.134748   20.684828   21.875844 H          1 MOL1         0.0948
      10    H7      18.496809   19.493427   22.993685 H          1 MOL1         0.0948
      11    C4      20.650977   19.343394   22.679710 C.3        1 MOL1        -0.1435
      12    H8      21.358471   19.627949   21.889552 H          1 MOL1         0.0948
      13    H9      20.801105   18.267499   22.838005 H          1 MOL1         0.0948
      14    C5      21.015899   20.135830   23.961122 C.3        1 MOL1        -0.1435
      15    H10     22.010915   20.574509   23.802921 H          1 MOL1         0.0948
      16    H11     20.347543   20.997451   24.089865 H          1 MOL1         0.0948
      17    C6      21.094388   19.297720   25.270387 C.3        1 MOL1        -0.1500
      18    H12     21.545519   19.939048   26.038827 H          1 MOL1         0.0948
      19    H13     21.803161   18.469836   25.136925 H          1 MOL1         0.0948
      20    C7      19.768605   18.753841   25.861114 C.3        1 MOL1         0.1162
      21    H14     19.972840   18.511590   26.908638 H          1 MOL1         0.0910
      22    C8      19.304647   17.444260   25.198864 C.3        1 MOL1        -0.2491
      23    H15     18.457023   17.018998   25.749980 H          1 MOL1         0.0959
      24    H16     18.984912   17.590176   24.163589 H          1 MOL1         0.0959
      25    H17     20.109029   16.698483   25.206014 H          1 MOL1         0.0959
      26    N1      18.672304   19.782322   25.891223 N.4        1 MOL1        -0.5987
      27    H18     17.824935   19.413949   26.332836 H          1 MOL1         0.3605
      28    H19     18.426303   20.084428   24.945981 H          1 MOL1         0.3605
      29    H20     18.956081   20.613865   26.417408 H          1 MOL1         0.3605
@<TRIPOS>BOND
    1     1     2    1
    2     1     3    1
    3     1     4    1
    4     1     5    1
    5     5     6    1
    6     5     7    1
    7     5     8    1
    8     8     9    1
    9     8    10    1
   10     8    11    1
   11    11    12    1
   12    11    13    1
   13    11    14    1
   14    14    15    1
   15    14    16    1
   16    14    17    1
   17    17    18    1
   18    17    19    1
   19    17    20    1
   20    20    21    1
   21    20    22    1
   22    22    23    1
   23    22    24    1
   24    22    25    1
   25    20    26    1
   26    26    27    1
   27    26    28    1
   28    26    29    1
@<TRIPOS>SUBSTRUCTURE
       1 MOL1            1 RESIDUE      1      MOL     
@<SCITEGIC>MOL_PROPERTY
VM2 Rank
SciTegic.value.IntegerValue
218

@<SCITEGIC>MOL_PROPERTY
Conf_Id
SciTegic.value.IntegerValue
1652

@<SCITEGIC>MOL_PROPERTY
Probability
SciTegic.value.DoubleValue
0.00

@<SCITEGIC>MOL_PROPERTY
Sum Probability
SciTegic.value.DoubleValue
100.00

@<SCITEGIC>MOL_PROPERTY
Delta G
SciTegic.value.DoubleValue
8.052

@<SCITEGIC>MOL_PROPERTY
G
SciTegic.value.DoubleValue
41.754

@<SCITEGIC>MOL_PROPERTY
E
SciTegic.value.DoubleValue
3.417

@<SCITEGIC>MOL_PROPERTY
-TS
SciTegic.value.DoubleValue
38.337

@<SCITEGIC>MOL_PROPERTY
U+W
SciTegic.value.DoubleValue
-20.727

@<SCITEGIC>MOL_PROPERTY
U
SciTegic.value.DoubleValue
31.881

@<SCITEGIC>MOL_PROPERTY
W
SciTegic.value.DoubleValue
-52.608

@<SCITEGIC>MOL_PROPERTY
W(PB)
SciTegic.value.DoubleValue
-54.981

@<SCITEGIC>MOL_PROPERTY
W(SA)
SciTegic.value.DoubleValue
2.372

@<SCITEGIC>MOL_PROPERTY
Valence
SciTegic.value.DoubleValue
9.739

@<SCITEGIC>MOL_PROPERTY
Coulomb
SciTegic.value.DoubleValue
21.342

@<SCITEGIC>MOL_PROPERTY
VdW
SciTegic.value.DoubleValue
0.800

@<SCITEGIC>MOL_PROPERTY
VdW6
SciTegic.value.DoubleValue
-11.811

@<SCITEGIC>MOL_PROPERTY
VdW12
SciTegic.value.DoubleValue
12.612

@<SCITEGIC>MOL_PROPERTY
Bond
SciTegic.value.DoubleValue
0.385

@<SCITEGIC>MOL_PROPERTY
Angle
SciTegic.value.DoubleValue
3.190

@<SCITEGIC>MOL_PROPERTY
Pdih
SciTegic.value.DoubleValue
6.164

@<SCITEGIC>MOL_PROPERTY
Idih
SciTegic.value.DoubleValue
0.000

@<SCITEGIC>MOL_PROPERTY
Tether
SciTegic.value.DoubleValue
0.000

@<TRIPOS>MOLECULE
guest-s15_vm2.mol2 : vm2 ligand conformer 219
          29          28           1
SMALL
USER_CHARGES
 
@<TRIPOS>ATOM
       1    C1      18.096100   19.864939   21.114939 C.3        1 MOL1        -0.2426
       2    H1      18.190104   20.670192   21.852212 H          1 MOL1         0.0959
       3    H2      18.363745   20.272550   20.131422 H          1 MOL1         0.0959
       4    H3      17.038565   19.573016   21.077237 H          1 MOL1         0.0959
       5    C2      18.980661   18.646368   21.466124 C.3        1 MOL1        -0.1410
       6    H4      18.776334   17.851054   20.735727 H          1 MOL1         0.0948
       7    H5      18.684258   18.238682   22.438039 H          1 MOL1         0.0948
       8    C3      20.499437   18.956643   21.433657 C.3        1 MOL1        -0.1435
       9    H6      21.065967   18.016992   21.488649 H          1 MOL1         0.0948
      10    H7      20.735531   19.381387   20.448160 H          1 MOL1         0.0948
      11    C4      21.011698   19.934217   22.527313 C.3        1 MOL1        -0.1435
      12    H8      20.249865   20.671736   22.793995 H          1 MOL1         0.0948
      13    H9      21.821445   20.527178   22.079898 H          1 MOL1         0.0948
      14    C5      21.607941   19.251696   23.789559 C.3        1 MOL1        -0.1435
      15    H10     22.466438   18.646286   23.467320 H          1 MOL1         0.0948
      16    H11     22.028576   20.024285   24.447950 H          1 MOL1         0.0948
      17    C6      20.667275   18.339774   24.623226 C.3        1 MOL1        -0.1500
      18    H12     21.309126   17.733151   25.275889 H          1 MOL1         0.0948
      19    H13     20.150066   17.618434   23.981458 H          1 MOL1         0.0948
      20    C7      19.664402   19.090494   25.531526 C.3        1 MOL1         0.1162
      21    H14     20.224717   19.817274   26.127596 H          1 MOL1         0.0910
      22    C8      18.982391   18.105183   26.494458 C.3        1 MOL1        -0.2491
      23    H15     18.407770   17.348081   25.946247 H          1 MOL1         0.0959
      24    H16     19.724693   17.587671   27.114849 H          1 MOL1         0.0959
      25    H17     18.296744   18.632649   27.169083 H          1 MOL1         0.0959
      26    N1      18.626093   19.866686   24.773198 N.4        1 MOL1        -0.5987
      27    H18     18.001410   20.372899   25.407669 H          1 MOL1         0.3605
      28    H19     18.049301   19.250141   24.195367 H          1 MOL1         0.3605
      29    H20     19.063459   20.553453   24.154771 H          1 MOL1         0.3605
@<TRIPOS>BOND
    1     1     2    1
    2     1     3    1
    3     1     4    1
    4     1     5    1
    5     5     6    1
    6     5     7    1
    7     5     8    1
    8     8     9    1
    9     8    10    1
   10     8    11    1
   11    11    12    1
   12    11    13    1
   13    11    14    1
   14    14    15    1
   15    14    16    1
   16    14    17    1
   17    17    18    1
   18    17    19    1
   19    17    20    1
   20    20    21    1
   21    20    22    1
   22    22    23    1
   23    22    24    1
   24    22    25    1
   25    20    26    1
   26    26    27    1
   27    26    28    1
   28    26    29    1
@<TRIPOS>SUBSTRUCTURE
       1 MOL1            1 RESIDUE      1      MOL     
@<SCITEGIC>MOL_PROPERTY
VM2 Rank
SciTegic.value.IntegerValue
219

@<SCITEGIC>MOL_PROPERTY
Conf_Id
SciTegic.value.IntegerValue
622

@<SCITEGIC>MOL_PROPERTY
Probability
SciTegic.value.DoubleValue
0.00

@<SCITEGIC>MOL_PROPERTY
Sum Probability
SciTegic.value.DoubleValue
100.00

@<SCITEGIC>MOL_PROPERTY
Delta G
SciTegic.value.DoubleValue
9.172

@<SCITEGIC>MOL_PROPERTY
G
SciTegic.value.DoubleValue
42.874

@<SCITEGIC>MOL_PROPERTY
E
SciTegic.value.DoubleValue
4.509

@<SCITEGIC>MOL_PROPERTY
-TS
SciTegic.value.DoubleValue
38.365

@<SCITEGIC>MOL_PROPERTY
U+W
SciTegic.value.DoubleValue
-19.636

@<SCITEGIC>MOL_PROPERTY
U
SciTegic.value.DoubleValue
31.754

@<SCITEGIC>MOL_PROPERTY
W
SciTegic.value.DoubleValue
-51.390

@<SCITEGIC>MOL_PROPERTY
W(PB)
SciTegic.value.DoubleValue
-53.731

@<SCITEGIC>MOL_PROPERTY
W(SA)
SciTegic.value.DoubleValue
2.341

@<SCITEGIC>MOL_PROPERTY
Valence
SciTegic.value.DoubleValue
9.082

@<SCITEGIC>MOL_PROPERTY
Coulomb
SciTegic.value.DoubleValue
22.210

@<SCITEGIC>MOL_PROPERTY
VdW
SciTegic.value.DoubleValue
0.463

@<SCITEGIC>MOL_PROPERTY
VdW6
SciTegic.value.DoubleValue
-12.280

@<SCITEGIC>MOL_PROPERTY
VdW12
SciTegic.value.DoubleValue
12.742

@<SCITEGIC>MOL_PROPERTY
Bond
SciTegic.value.DoubleValue
0.434

@<SCITEGIC>MOL_PROPERTY
Angle
SciTegic.value.DoubleValue
3.630

@<SCITEGIC>MOL_PROPERTY
Pdih
SciTegic.value.DoubleValue
5.018

@<SCITEGIC>MOL_PROPERTY
Idih
SciTegic.value.DoubleValue
0.000

@<SCITEGIC>MOL_PROPERTY
Tether
SciTegic.value.DoubleValue
0.000

@<TRIPOS>MOLECULE
guest-s15_vm2.mol2 : vm2 ligand conformer 220
          29          28           1
SMALL
USER_CHARGES
 
@<TRIPOS>ATOM
       1    C1      18.485009   20.385332   20.999905 C.3        1 MOL1        -0.2426
       2    H1      19.188749   21.132240   21.386883 H          1 MOL1         0.0959
       3    H2      18.064418   20.784957   20.067960 H          1 MOL1         0.0959
       4    H3      17.660133   20.279037   21.715859 H          1 MOL1         0.0959
       5    C2      19.175601   19.027564   20.736554 C.3        1 MOL1        -0.1410
       6    H4      19.989117   19.158821   20.009326 H          1 MOL1         0.0948
       7    H5      18.449738   18.349797   20.265720 H          1 MOL1         0.0948
       8    C3      19.721813   18.356994   22.018940 C.3        1 MOL1        -0.1435
       9    H6      18.911239   18.257984   22.748907 H          1 MOL1         0.0948
      10    H7      20.025865   17.330356   21.771567 H          1 MOL1         0.0948
      11    C4      20.942303   19.096369   22.625781 C.3        1 MOL1        -0.1435
      12    H8      20.739719   20.164736   22.766809 H          1 MOL1         0.0948
      13    H9      21.760142   19.050511   21.893232 H          1 MOL1         0.0948
      14    C5      21.439357   18.469588   23.954991 C.3        1 MOL1        -0.1435
      15    H10     21.114546   17.424003   24.038143 H          1 MOL1         0.0948
      16    H11     22.536168   18.422307   23.908502 H          1 MOL1         0.0948
      17    C6      21.073063   19.265888   25.241260 C.3        1 MOL1        -0.1500
      18    H12     21.465180   20.287822   25.156287 H          1 MOL1         0.0948
      19    H13     21.617965   18.816469   26.081933 H          1 MOL1         0.0948
      20    C7      19.577780   19.335579   25.638575 C.3        1 MOL1         0.1162
      21    H14     19.528919   19.846237   26.605282 H          1 MOL1         0.0910
      22    C8      18.961882   17.939173   25.835697 C.3        1 MOL1        -0.2491
      23    H15     17.941492   18.021612   26.229508 H          1 MOL1         0.0959
      24    H16     18.915456   17.373271   24.899138 H          1 MOL1         0.0959
      25    H17     19.549014   17.356400   26.556204 H          1 MOL1         0.0959
      26    N1      18.759192   20.179513   24.702297 N.4        1 MOL1        -0.5987
      27    H18     18.821700   19.822397   23.744330 H          1 MOL1         0.3605
      28    H19     19.089263   21.149114   24.692662 H          1 MOL1         0.3605
      29    H20     17.772265   20.193520   24.976059 H          1 MOL1         0.3605
@<TRIPOS>BOND
    1     1     2    1
    2     1     3    1
    3     1     4    1
    4     1     5    1
    5     5     6    1
    6     5     7    1
    7     5     8    1
    8     8     9    1
    9     8    10    1
   10     8    11    1
   11    11    12    1
   12    11    13    1
   13    11    14    1
   14    14    15    1
   15    14    16    1
   16    14    17    1
   17    17    18    1
   18    17    19    1
   19    17    20    1
   20    20    21    1
   21    20    22    1
   22    22    23    1
   23    22    24    1
   24    22    25    1
   25    20    26    1
   26    26    27    1
   27    26    28    1
   28    26    29    1
@<TRIPOS>SUBSTRUCTURE
       1 MOL1            1 RESIDUE      1      MOL     
@<SCITEGIC>MOL_PROPERTY
VM2 Rank
SciTegic.value.IntegerValue
220

@<SCITEGIC>MOL_PROPERTY
Conf_Id
SciTegic.value.IntegerValue
1336

@<SCITEGIC>MOL_PROPERTY
Probability
SciTegic.value.DoubleValue
0.00

@<SCITEGIC>MOL_PROPERTY
Sum Probability
SciTegic.value.DoubleValue
100.00

@<SCITEGIC>MOL_PROPERTY
Delta G
SciTegic.value.DoubleValue
9.293

@<SCITEGIC>MOL_PROPERTY
G
SciTegic.value.DoubleValue
42.996

@<SCITEGIC>MOL_PROPERTY
E
SciTegic.value.DoubleValue
4.105

@<SCITEGIC>MOL_PROPERTY
-TS
SciTegic.value.DoubleValue
38.891

@<SCITEGIC>MOL_PROPERTY
U+W
SciTegic.value.DoubleValue
-20.040

@<SCITEGIC>MOL_PROPERTY
U
SciTegic.value.DoubleValue
30.902

@<SCITEGIC>MOL_PROPERTY
W
SciTegic.value.DoubleValue
-50.942

@<SCITEGIC>MOL_PROPERTY
W(PB)
SciTegic.value.DoubleValue
-53.280

@<SCITEGIC>MOL_PROPERTY
W(SA)
SciTegic.value.DoubleValue
2.337

@<SCITEGIC>MOL_PROPERTY
Valence
SciTegic.value.DoubleValue
8.630

@<SCITEGIC>MOL_PROPERTY
Coulomb
SciTegic.value.DoubleValue
21.734

@<SCITEGIC>MOL_PROPERTY
VdW
SciTegic.value.DoubleValue
0.539

@<SCITEGIC>MOL_PROPERTY
VdW6
SciTegic.value.DoubleValue
-12.780

@<SCITEGIC>MOL_PROPERTY
VdW12
SciTegic.value.DoubleValue
13.319

@<SCITEGIC>MOL_PROPERTY
Bond
SciTegic.value.DoubleValue
0.379

@<SCITEGIC>MOL_PROPERTY
Angle
SciTegic.value.DoubleValue
2.934

@<SCITEGIC>MOL_PROPERTY
Pdih
SciTegic.value.DoubleValue
5.317

@<SCITEGIC>MOL_PROPERTY
Idih
SciTegic.value.DoubleValue
0.000

@<SCITEGIC>MOL_PROPERTY
Tether
SciTegic.value.DoubleValue
0.000

@<TRIPOS>MOLECULE
guest-s15_vm2.mol2 : vm2 ligand conformer 221
          29          28           1
SMALL
USER_CHARGES
 
@<TRIPOS>ATOM
       1    C1      21.066566   20.286703   21.248645 C.3        1 MOL1        -0.2426
       2    H1      21.752066   20.302563   20.391490 H          1 MOL1         0.0959
       3    H2      20.915546   21.324432   21.573371 H          1 MOL1         0.0959
       4    H3      21.563463   19.747765   22.063330 H          1 MOL1         0.0959
       5    C2      19.722378   19.630985   20.855064 C.3        1 MOL1        -0.1410
       6    H4      19.894894   18.625830   20.445884 H          1 MOL1         0.0948
       7    H5      19.283165   20.217542   20.035948 H          1 MOL1         0.0948
       8    C3      18.709647   19.575421   22.027877 C.3        1 MOL1        -0.1435
       9    H6      18.970362   20.331467   22.775281 H          1 MOL1         0.0948
      10    H7      17.727382   19.880070   21.640717 H          1 MOL1         0.0948
      11    C4      18.538829   18.168277   22.667483 C.3        1 MOL1        -0.1435
      12    H8      18.187454   17.490379   21.877155 H          1 MOL1         0.0948
      13    H9      17.728384   18.186482   23.408127 H          1 MOL1         0.0948
      14    C5      19.810465   17.541595   23.300348 C.3        1 MOL1        -0.1435
      15    H10     19.710436   16.449602   23.230806 H          1 MOL1         0.0948
      16    H11     20.696190   17.778803   22.700751 H          1 MOL1         0.0948
      17    C6      20.076799   17.874508   24.793591 C.3        1 MOL1        -0.1500
      18    H12     21.007863   17.363800   25.073567 H          1 MOL1         0.0948
      19    H13     19.295441   17.425278   25.420726 H          1 MOL1         0.0948
      20    C7      20.207999   19.377497   25.127996 C.3        1 MOL1         0.1162
      21    H14     20.649875   19.887743   24.266799 H          1 MOL1         0.0910
      22    C8      21.132043   19.586308   26.338890 C.3        1 MOL1        -0.2491
      23    H15     20.741568   19.076434   27.228616 H          1 MOL1         0.0959
      24    H16     22.137312   19.197055   26.134560 H          1 MOL1         0.0959
      25    H17     21.231800   20.653605   26.572104 H          1 MOL1         0.0959
      26    N1      18.871275   20.014706   25.394105 N.4        1 MOL1        -0.5987
      27    H18     18.423493   19.606354   26.219089 H          1 MOL1         0.3605
      28    H19     18.237780   19.883171   24.600772 H          1 MOL1         0.3605
      29    H20     18.961884   21.021131   25.560892 H          1 MOL1         0.3605
@<TRIPOS>BOND
    1     1     2    1
    2     1     3    1
    3     1     4    1
    4     1     5    1
    5     5     6    1
    6     5     7    1
    7     5     8    1
    8     8     9    1
    9     8    10    1
   10     8    11    1
   11    11    12    1
   12    11    13    1
   13    11    14    1
   14    14    15    1
   15    14    16    1
   16    14    17    1
   17    17    18    1
   18    17    19    1
   19    17    20    1
   20    20    21    1
   21    20    22    1
   22    22    23    1
   23    22    24    1
   24    22    25    1
   25    20    26    1
   26    26    27    1
   27    26    28    1
   28    26    29    1
@<TRIPOS>SUBSTRUCTURE
       1 MOL1            1 RESIDUE      1      MOL     
@<SCITEGIC>MOL_PROPERTY
VM2 Rank
SciTegic.value.IntegerValue
221

@<SCITEGIC>MOL_PROPERTY
Conf_Id
SciTegic.value.IntegerValue
1635

@<SCITEGIC>MOL_PROPERTY
Probability
SciTegic.value.DoubleValue
0.00

@<SCITEGIC>MOL_PROPERTY
Sum Probability
SciTegic.value.DoubleValue
100.00

@<SCITEGIC>MOL_PROPERTY
Delta G
SciTegic.value.DoubleValue
9.977

@<SCITEGIC>MOL_PROPERTY
G
SciTegic.value.DoubleValue
43.679

@<SCITEGIC>MOL_PROPERTY
E
SciTegic.value.DoubleValue
5.441

@<SCITEGIC>MOL_PROPERTY
-TS
SciTegic.value.DoubleValue
38.238

@<SCITEGIC>MOL_PROPERTY
U+W
SciTegic.value.DoubleValue
-18.703

@<SCITEGIC>MOL_PROPERTY
U
SciTegic.value.DoubleValue
33.704

@<SCITEGIC>MOL_PROPERTY
W
SciTegic.value.DoubleValue
-52.407

@<SCITEGIC>MOL_PROPERTY
W(PB)
SciTegic.value.DoubleValue
-54.808

@<SCITEGIC>MOL_PROPERTY
W(SA)
SciTegic.value.DoubleValue
2.401

@<SCITEGIC>MOL_PROPERTY
Valence
SciTegic.value.DoubleValue
11.195

@<SCITEGIC>MOL_PROPERTY
Coulomb
SciTegic.value.DoubleValue
21.655

@<SCITEGIC>MOL_PROPERTY
VdW
SciTegic.value.DoubleValue
0.854

@<SCITEGIC>MOL_PROPERTY
VdW6
SciTegic.value.DoubleValue
-12.375

@<SCITEGIC>MOL_PROPERTY
VdW12
SciTegic.value.DoubleValue
13.229

@<SCITEGIC>MOL_PROPERTY
Bond
SciTegic.value.DoubleValue
0.401

@<SCITEGIC>MOL_PROPERTY
Angle
SciTegic.value.DoubleValue
3.380

@<SCITEGIC>MOL_PROPERTY
Pdih
SciTegic.value.DoubleValue
7.413

@<SCITEGIC>MOL_PROPERTY
Idih
SciTegic.value.DoubleValue
0.000

@<SCITEGIC>MOL_PROPERTY
Tether
SciTegic.value.DoubleValue
0.000

