VeraChem MOL file


 20 19  0  0  0  0  0  0  0  0999 V2000     
   19.7358   18.9391   25.6479 N   0  3  0  0  0  0  0  0  0  0  0  0
   19.5332   17.9361   25.7060 H   0  0  0  0  0  0  0  0  0  0  0  0
   20.2631   19.1851   26.4922 H   0  0  0  0  0  0  0  0  0  0  0  0
   18.8386   19.4313   25.7041 H   0  0  0  0  0  0  0  0  0  0  0  0
   20.4973   19.2912   24.3859 C   0  0  0  0  0  0  0  0  0  0  0  0
   21.4511   18.7572   24.4071 H   0  0  0  0  0  0  0  0  0  0  0  0
   20.7044   20.3646   24.4051 H   0  0  0  0  0  0  0  0  0  0  0  0
   19.7326   18.9344   23.0985 C   0  0  0  0  0  0  0  0  0  0  0  0
   19.5128   17.8585   23.0910 H   0  0  0  0  0  0  0  0  0  0  0  0
   18.7685   19.4603   23.0891 H   0  0  0  0  0  0  0  0  0  0  0  0
   20.5421   19.3090   21.8371 C   0  0  0  0  0  0  0  0  0  0  0  0
   21.5081   18.7852   21.8524 H   0  0  0  0  0  0  0  0  0  0  0  0
   20.7647   20.3851   21.8505 H   0  0  0  0  0  0  0  0  0  0  0  0
   19.7839   18.9552   20.5381 C   0  0  0  0  0  0  0  0  0  0  0  0
   19.5609   17.8791   20.5196 H   0  0  0  0  0  0  0  0  0  0  0  0
   18.8178   19.4789   20.5176 H   0  0  0  0  0  0  0  0  0  0  0  0
   20.5964   19.3311   19.2806 C   0  0  0  0  0  0  0  0  0  0  0  0
   20.0421   19.0724   18.3691 H   0  0  0  0  0  0  0  0  0  0  0  0
   20.8056   20.4085   19.2529 H   0  0  0  0  0  0  0  0  0  0  0  0
   21.5547   18.7961   19.2549 H   0  0  0  0  0  0  0  0  0  0  0  0
  1  2  1  0  0  0  0
  1  3  1  0  0  0  0
  1  4  1  0  0  0  0
  1  5  1  0  0  0  0
  5  6  1  0  0  0  0
  5  7  1  0  0  0  0
  5  8  1  0  0  0  0
  8  9  1  0  0  0  0
  8 10  1  0  0  0  0
  8 11  1  0  0  0  0
 11 12  1  0  0  0  0
 11 13  1  0  0  0  0
 11 14  1  0  0  0  0
 14 15  1  0  0  0  0
 14 16  1  0  0  0  0
 14 17  1  0  0  0  0
 17 18  1  0  0  0  0
 17 19  1  0  0  0  0
 17 20  1  0  0  0  0
M  END
> <VM2 Rank>
1

> <Conf_Id>
275

> <Probability>
18.27

> <Sum Probability>
18.27

> <Delta G>
0.000

> <G>
27.007

> <E>
4.319

> <-TS>
22.689

> <U+W>
-11.778

> <U>
45.772

> <W>
-57.550

> <W(PB)>
-59.511

> <W(SA)>
1.961

> <Valence>
1.299

> <Coulomb>
44.177

> <VdW>
0.297

> <VdW6>
-3.490

> <VdW12>
3.786

> <Bond>
0.096

> <Angle>
0.381

> <Pdih>
0.822

> <Idih>
0.000

> <Tether>
0.000

$$$$
VeraChem MOL file


 20 19  0  0  0  0  0  0  0  0999 V2000     
   20.6069   18.3920   25.0324 N   0  3  0  0  0  0  0  0  0  0  0  0
   20.9677   18.5359   25.9814 H   0  0  0  0  0  0  0  0  0  0  0  0
   19.9888   17.5754   25.0696 H   0  0  0  0  0  0  0  0  0  0  0  0
   21.4066   18.1398   24.4443 H   0  0  0  0  0  0  0  0  0  0  0  0
   19.8879   19.6214   24.5113 C   0  0  0  0  0  0  0  0  0  0  0  0
   20.5934   20.4566   24.5202 H   0  0  0  0  0  0  0  0  0  0  0  0
   19.0786   19.8527   25.2092 H   0  0  0  0  0  0  0  0  0  0  0  0
   19.3062   19.4491   23.0944 C   0  0  0  0  0  0  0  0  0  0  0  0
   18.6022   18.6063   23.0873 H   0  0  0  0  0  0  0  0  0  0  0  0
   18.7230   20.3461   22.8474 H   0  0  0  0  0  0  0  0  0  0  0  0
   20.3992   19.2367   22.0200 C   0  0  0  0  0  0  0  0  0  0  0  0
   20.9646   18.3207   22.2376 H   0  0  0  0  0  0  0  0  0  0  0  0
   21.1155   20.0694   22.0566 H   0  0  0  0  0  0  0  0  0  0  0  0
   19.7980   19.1369   20.6002 C   0  0  0  0  0  0  0  0  0  0  0  0
   19.0800   18.3058   20.5588 H   0  0  0  0  0  0  0  0  0  0  0  0
   19.2357   20.0527   20.3695 H   0  0  0  0  0  0  0  0  0  0  0  0
   20.8897   18.9240   19.5298 C   0  0  0  0  0  0  0  0  0  0  0  0
   20.4436   18.8563   18.5291 H   0  0  0  0  0  0  0  0  0  0  0  0
   21.6049   19.7569   19.5238 H   0  0  0  0  0  0  0  0  0  0  0  0
   21.4472   17.9962   19.7131 H   0  0  0  0  0  0  0  0  0  0  0  0
  1  2  1  0  0  0  0
  1  3  1  0  0  0  0
  1  4  1  0  0  0  0
  1  5  1  0  0  0  0
  5  6  1  0  0  0  0
  5  7  1  0  0  0  0
  5  8  1  0  0  0  0
  8  9  1  0  0  0  0
  8 10  1  0  0  0  0
  8 11  1  0  0  0  0
 11 12  1  0  0  0  0
 11 13  1  0  0  0  0
 11 14  1  0  0  0  0
 14 15  1  0  0  0  0
 14 16  1  0  0  0  0
 14 17  1  0  0  0  0
 17 18  1  0  0  0  0
 17 19  1  0  0  0  0
 17 20  1  0  0  0  0
M  END
> <VM2 Rank>
2

> <Conf_Id>
320

> <Probability>
11.03

> <Sum Probability>
29.30

> <Delta G>
0.301

> <G>
27.308

> <E>
4.519

> <-TS>
22.789

> <U+W>
-11.577

> <U>
46.423

> <W>
-58.000

> <W(PB)>
-59.939

> <W(SA)>
1.939

> <Valence>
1.410

> <Coulomb>
44.613

> <VdW>
0.400

> <VdW6>
-4.001

> <VdW12>
4.401

> <Bond>
0.117

> <Angle>
0.430

> <Pdih>
0.863

> <Idih>
0.000

> <Tether>
0.000

$$$$
VeraChem MOL file


 20 19  0  0  0  0  0  0  0  0999 V2000     
   19.8798   19.9563   25.0305 N   0  3  0  0  0  0  0  0  0  0  0  0
   18.8571   20.0104   25.0666 H   0  0  0  0  0  0  0  0  0  0  0  0
   20.2216   20.1412   25.9794 H   0  0  0  0  0  0  0  0  0  0  0  0
   20.2033   20.7290   24.4411 H   0  0  0  0  0  0  0  0  0  0  0  0
   20.3566   18.6130   24.5125 C   0  0  0  0  0  0  0  0  0  0  0  0
   20.0109   17.8467   25.2116 H   0  0  0  0  0  0  0  0  0  0  0  0
   21.4499   18.6138   24.5225 H   0  0  0  0  0  0  0  0  0  0  0  0
   19.8511   18.2766   23.0959 C   0  0  0  0  0  0  0  0  0  0  0  0
   20.1609   17.2519   22.8512 H   0  0  0  0  0  0  0  0  0  0  0  0
   18.7530   18.2819   23.0877 H   0  0  0  0  0  0  0  0  0  0  0  0
   20.3947   19.2468   22.0200 C   0  0  0  0  0  0  0  0  0  0  0  0
   21.4929   19.2571   22.0574 H   0  0  0  0  0  0  0  0  0  0  0  0
   20.0591   20.2700   22.2353 H   0  0  0  0  0  0  0  0  0  0  0  0
   19.9317   18.8489   20.6005 C   0  0  0  0  0  0  0  0  0  0  0  0
   20.2690   17.8280   20.3722 H   0  0  0  0  0  0  0  0  0  0  0  0
   18.8335   18.8362   20.5583 H   0  0  0  0  0  0  0  0  0  0  0  0
   20.4741   19.8184   19.5287 C   0  0  0  0  0  0  0  0  0  0  0  0
   20.1353   19.5192   18.5283 H   0  0  0  0  0  0  0  0  0  0  0  0
   20.1247   20.8432   19.7098 H   0  0  0  0  0  0  0  0  0  0  0  0
   21.5719   19.8275   19.5234 H   0  0  0  0  0  0  0  0  0  0  0  0
  1  2  1  0  0  0  0
  1  3  1  0  0  0  0
  1  4  1  0  0  0  0
  1  5  1  0  0  0  0
  5  6  1  0  0  0  0
  5  7  1  0  0  0  0
  5  8  1  0  0  0  0
  8  9  1  0  0  0  0
  8 10  1  0  0  0  0
  8 11  1  0  0  0  0
 11 12  1  0  0  0  0
 11 13  1  0  0  0  0
 11 14  1  0  0  0  0
 14 15  1  0  0  0  0
 14 16  1  0  0  0  0
 14 17  1  0  0  0  0
 17 18  1  0  0  0  0
 17 19  1  0  0  0  0
 17 20  1  0  0  0  0
M  END
> <VM2 Rank>
3

> <Conf_Id>
117

> <Probability>
10.32

> <Sum Probability>
39.62

> <Delta G>
0.340

> <G>
27.347

> <E>
4.558

> <-TS>
22.789

> <U+W>
-11.538

> <U>
46.423

> <W>
-57.961

> <W(PB)>
-59.893

> <W(SA)>
1.932

> <Valence>
1.410

> <Coulomb>
44.613

> <VdW>
0.400

> <VdW6>
-4.001

> <VdW12>
4.401

> <Bond>
0.117

> <Angle>
0.430

> <Pdih>
0.863

> <Idih>
0.000

> <Tether>
0.000

$$$$
VeraChem MOL file


 20 19  0  0  0  0  0  0  0  0999 V2000     
   19.6445   19.3205   25.4425 N   0  3  0  0  0  0  0  0  0  0  0  0
   18.6981   18.9276   25.4587 H   0  0  0  0  0  0  0  0  0  0  0  0
   20.2499   18.6687   25.9515 H   0  0  0  0  0  0  0  0  0  0  0  0
   19.6157   20.1877   25.9891 H   0  0  0  0  0  0  0  0  0  0  0  0
   20.1337   19.5617   24.0287 C   0  0  0  0  0  0  0  0  0  0  0  0
   21.1310   20.0060   24.0878 H   0  0  0  0  0  0  0  0  0  0  0  0
   19.4620   20.2858   23.5606 H   0  0  0  0  0  0  0  0  0  0  0  0
   20.1886   18.2769   23.1804 C   0  0  0  0  0  0  0  0  0  0  0  0
   20.8313   17.5422   23.6835 H   0  0  0  0  0  0  0  0  0  0  0  0
   19.1872   17.8300   23.1218 H   0  0  0  0  0  0  0  0  0  0  0  0
   20.7318   18.5248   21.7532 C   0  0  0  0  0  0  0  0  0  0  0  0
   20.8307   17.5579   21.2407 H   0  0  0  0  0  0  0  0  0  0  0  0
   21.7441   18.9481   21.8144 H   0  0  0  0  0  0  0  0  0  0  0  0
   19.8273   19.4556   20.9108 C   0  0  0  0  0  0  0  0  0  0  0  0
   18.8071   19.0484   20.8750 H   0  0  0  0  0  0  0  0  0  0  0  0
   19.7575   20.4452   21.3824 H   0  0  0  0  0  0  0  0  0  0  0  0
   20.3622   19.6204   19.4722 C   0  0  0  0  0  0  0  0  0  0  0  0
   20.4079   18.6536   18.9542 H   0  0  0  0  0  0  0  0  0  0  0  0
   19.7097   20.2836   18.8896 H   0  0  0  0  0  0  0  0  0  0  0  0
   21.3701   20.0557   19.4732 H   0  0  0  0  0  0  0  0  0  0  0  0
  1  2  1  0  0  0  0
  1  3  1  0  0  0  0
  1  4  1  0  0  0  0
  1  5  1  0  0  0  0
  5  6  1  0  0  0  0
  5  7  1  0  0  0  0
  5  8  1  0  0  0  0
  8  9  1  0  0  0  0
  8 10  1  0  0  0  0
  8 11  1  0  0  0  0
 11 12  1  0  0  0  0
 11 13  1  0  0  0  0
 11 14  1  0  0  0  0
 14 15  1  0  0  0  0
 14 16  1  0  0  0  0
 14 17  1  0  0  0  0
 17 18  1  0  0  0  0
 17 19  1  0  0  0  0
 17 20  1  0  0  0  0
M  END
> <VM2 Rank>
4

> <Conf_Id>
122

> <Probability>
8.09

> <Sum Probability>
47.72

> <Delta G>
0.485

> <G>
27.493

> <E>
4.709

> <-TS>
22.784

> <U+W>
-11.388

> <U>
46.508

> <W>
-57.896

> <W(PB)>
-59.824

> <W(SA)>
1.928

> <Valence>
1.610

> <Coulomb>
44.536

> <VdW>
0.363

> <VdW6>
-4.057

> <VdW12>
4.419

> <Bond>
0.118

> <Angle>
0.515

> <Pdih>
0.977

> <Idih>
0.000

> <Tether>
0.000

$$$$
VeraChem MOL file


 20 19  0  0  0  0  0  0  0  0999 V2000     
   19.9685   18.6227   25.4434 N   0  3  0  0  0  0  0  0  0  0  0  0
   19.0579   18.1528   25.4596 H   0  0  0  0  0  0  0  0  0  0  0  0
   20.6122   18.0427   25.9918 H   0  0  0  0  0  0  0  0  0  0  0  0
   19.8602   19.5068   25.9504 H   0  0  0  0  0  0  0  0  0  0  0  0
   20.4698   18.8383   24.0297 C   0  0  0  0  0  0  0  0  0  0  0  0
   20.5904   17.8570   23.5636 H   0  0  0  0  0  0  0  0  0  0  0  0
   21.4525   19.3140   24.0887 H   0  0  0  0  0  0  0  0  0  0  0  0
   19.5242   19.7073   23.1787 C   0  0  0  0  0  0  0  0  0  0  0  0
   18.5368   19.2301   23.1201 H   0  0  0  0  0  0  0  0  0  0  0  0
   19.3769   20.6733   23.6797 H   0  0  0  0  0  0  0  0  0  0  0  0
   20.0654   19.9595   21.7515 C   0  0  0  0  0  0  0  0  0  0  0  0
   21.0417   20.4601   21.8126 H   0  0  0  0  0  0  0  0  0  0  0  0
   19.3908   20.6578   21.2369 H   0  0  0  0  0  0  0  0  0  0  0  0
   20.1939   18.6663   20.9118 C   0  0  0  0  0  0  0  0  0  0  0  0
   20.9047   17.9756   21.3853 H   0  0  0  0  0  0  0  0  0  0  0  0
   19.2247   18.1493   20.8761 H   0  0  0  0  0  0  0  0  0  0  0  0
   20.6662   18.9659   19.4730 C   0  0  0  0  0  0  0  0  0  0  0  0
   20.7526   18.0383   18.8922 H   0  0  0  0  0  0  0  0  0  0  0  0
   19.9574   19.6234   18.9530 H   0  0  0  0  0  0  0  0  0  0  0  0
   21.6489   19.4553   19.4738 H   0  0  0  0  0  0  0  0  0  0  0  0
  1  2  1  0  0  0  0
  1  3  1  0  0  0  0
  1  4  1  0  0  0  0
  1  5  1  0  0  0  0
  5  6  1  0  0  0  0
  5  7  1  0  0  0  0
  5  8  1  0  0  0  0
  8  9  1  0  0  0  0
  8 10  1  0  0  0  0
  8 11  1  0  0  0  0
 11 12  1  0  0  0  0
 11 13  1  0  0  0  0
 11 14  1  0  0  0  0
 14 15  1  0  0  0  0
 14 16  1  0  0  0  0
 14 17  1  0  0  0  0
 17 18  1  0  0  0  0
 17 19  1  0  0  0  0
 17 20  1  0  0  0  0
M  END
> <VM2 Rank>
5

> <Conf_Id>
138

> <Probability>
7.92

> <Sum Probability>
55.64

> <Delta G>
0.498

> <G>
27.505

> <E>
4.721

> <-TS>
22.784

> <U+W>
-11.375

> <U>
46.508

> <W>
-57.883

> <W(PB)>
-59.814

> <W(SA)>
1.931

> <Valence>
1.610

> <Coulomb>
44.536

> <VdW>
0.362

> <VdW6>
-4.056

> <VdW12>
4.419

> <Bond>
0.118

> <Angle>
0.515

> <Pdih>
0.977

> <Idih>
0.000

> <Tether>
0.000

$$$$
VeraChem MOL file


 20 19  0  0  0  0  0  0  0  0999 V2000     
   19.4823   19.4056   25.4133 N   0  3  0  0  0  0  0  0  0  0  0  0
   18.6902   18.7557   25.4357 H   0  0  0  0  0  0  0  0  0  0  0  0
   19.9097   19.3853   26.3452 H   0  0  0  0  0  0  0  0  0  0  0  0
   19.0967   20.3463   25.2838 H   0  0  0  0  0  0  0  0  0  0  0  0
   20.4786   19.0473   24.3291 C   0  0  0  0  0  0  0  0  0  0  0  0
   20.8696   18.0496   24.5466 H   0  0  0  0  0  0  0  0  0  0  0  0
   21.3065   19.7595   24.3826 H   0  0  0  0  0  0  0  0  0  0  0  0
   19.8688   19.0677   22.9160 C   0  0  0  0  0  0  0  0  0  0  0  0
   19.0279   18.3629   22.8713 H   0  0  0  0  0  0  0  0  0  0  0  0
   19.4642   20.0678   22.7155 H   0  0  0  0  0  0  0  0  0  0  0  0
   20.9190   18.6942   21.8432 C   0  0  0  0  0  0  0  0  0  0  0  0
   21.3669   17.7249   22.1033 H   0  0  0  0  0  0  0  0  0  0  0  0
   21.7385   19.4262   21.8567 H   0  0  0  0  0  0  0  0  0  0  0  0
   20.3341   18.5983   20.4130 C   0  0  0  0  0  0  0  0  0  0  0  0
   21.1170   18.2287   19.7359 H   0  0  0  0  0  0  0  0  0  0  0  0
   19.5297   17.8498   20.3895 H   0  0  0  0  0  0  0  0  0  0  0  0
   19.8052   19.9469   19.8734 C   0  0  0  0  0  0  0  0  0  0  0  0
   20.5829   20.7206   19.9125 H   0  0  0  0  0  0  0  0  0  0  0  0
   19.4872   19.8440   18.8278 H   0  0  0  0  0  0  0  0  0  0  0  0
   18.9394   20.2997   20.4474 H   0  0  0  0  0  0  0  0  0  0  0  0
  1  2  1  0  0  0  0
  1  3  1  0  0  0  0
  1  4  1  0  0  0  0
  1  5  1  0  0  0  0
  5  6  1  0  0  0  0
  5  7  1  0  0  0  0
  5  8  1  0  0  0  0
  8  9  1  0  0  0  0
  8 10  1  0  0  0  0
  8 11  1  0  0  0  0
 11 12  1  0  0  0  0
 11 13  1  0  0  0  0
 11 14  1  0  0  0  0
 14 15  1  0  0  0  0
 14 16  1  0  0  0  0
 14 17  1  0  0  0  0
 17 18  1  0  0  0  0
 17 19  1  0  0  0  0
 17 20  1  0  0  0  0
M  END
> <VM2 Rank>
6

> <Conf_Id>
202

> <Probability>
6.50

> <Sum Probability>
62.14

> <Delta G>
0.616

> <G>
27.623

> <E>
4.825

> <-TS>
22.798

> <U+W>
-11.272

> <U>
46.486

> <W>
-57.758

> <W(PB)>
-59.705

> <W(SA)>
1.947

> <Valence>
1.806

> <Coulomb>
44.248

> <VdW>
0.433

> <VdW6>
-4.089

> <VdW12>
4.522

> <Bond>
0.131

> <Angle>
0.628

> <Pdih>
1.047

> <Idih>
0.000

> <Tether>
0.000

$$$$
VeraChem MOL file


 20 19  0  0  0  0  0  0  0  0999 V2000     
   19.9291   18.4439   25.4144 N   0  3  0  0  0  0  0  0  0  0  0  0
   20.1885   18.7854   26.3459 H   0  0  0  0  0  0  0  0  0  0  0  0
   18.9215   18.2577   25.4363 H   0  0  0  0  0  0  0  0  0  0  0  0
   20.3995   17.5422   25.2871 H   0  0  0  0  0  0  0  0  0  0  0  0
   20.2988   19.4343   24.3286 C   0  0  0  0  0  0  0  0  0  0  0  0
   21.3770   19.6077   24.3828 H   0  0  0  0  0  0  0  0  0  0  0  0
   19.7884   20.3769   24.5439 H   0  0  0  0  0  0  0  0  0  0  0  0
   19.9224   18.9523   22.9161 C   0  0  0  0  0  0  0  0  0  0  0  0
   20.4258   17.9976   22.7180 H   0  0  0  0  0  0  0  0  0  0  0  0
   18.8415   18.7643   22.8708 H   0  0  0  0  0  0  0  0  0  0  0  0
   20.3153   19.9936   21.8416 C   0  0  0  0  0  0  0  0  0  0  0  0
   21.4033   20.1477   21.8559 H   0  0  0  0  0  0  0  0  0  0  0  0
   19.8634   20.9616   22.0994 H   0  0  0  0  0  0  0  0  0  0  0  0
   19.8663   19.6056   20.4118 C   0  0  0  0  0  0  0  0  0  0  0  0
   18.7754   19.4737   20.3875 H   0  0  0  0  0  0  0  0  0  0  0  0
   20.0895   20.4409   19.7332 H   0  0  0  0  0  0  0  0  0  0  0  0
   20.5561   18.3304   19.8754 C   0  0  0  0  0  0  0  0  0  0  0  0
   20.2666   17.4424   20.4509 H   0  0  0  0  0  0  0  0  0  0  0  0
   20.2733   18.1517   18.8299 H   0  0  0  0  0  0  0  0  0  0  0  0
   21.6489   18.4256   19.9155 H   0  0  0  0  0  0  0  0  0  0  0  0
  1  2  1  0  0  0  0
  1  3  1  0  0  0  0
  1  4  1  0  0  0  0
  1  5  1  0  0  0  0
  5  6  1  0  0  0  0
  5  7  1  0  0  0  0
  5  8  1  0  0  0  0
  8  9  1  0  0  0  0
  8 10  1  0  0  0  0
  8 11  1  0  0  0  0
 11 12  1  0  0  0  0
 11 13  1  0  0  0  0
 11 14  1  0  0  0  0
 14 15  1  0  0  0  0
 14 16  1  0  0  0  0
 14 17  1  0  0  0  0
 17 18  1  0  0  0  0
 17 19  1  0  0  0  0
 17 20  1  0  0  0  0
M  END
> <VM2 Rank>
7

> <Conf_Id>
247

> <Probability>
6.41

> <Sum Probability>
68.55

> <Delta G>
0.624

> <G>
27.631

> <E>
4.833

> <-TS>
22.798

> <U+W>
-11.263

> <U>
46.486

> <W>
-57.750

> <W(PB)>
-59.686

> <W(SA)>
1.936

> <Valence>
1.806

> <Coulomb>
44.248

> <VdW>
0.433

> <VdW6>
-4.089

> <VdW12>
4.522

> <Bond>
0.131

> <Angle>
0.628

> <Pdih>
1.047

> <Idih>
0.000

> <Tether>
0.000

$$$$
VeraChem MOL file


 20 19  0  0  0  0  0  0  0  0999 V2000     
   19.4805   19.1733   25.1477 N   0  3  0  0  0  0  0  0  0  0  0  0
   19.6590   19.4561   26.1171 H   0  0  0  0  0  0  0  0  0  0  0  0
   18.8426   19.8675   24.7474 H   0  0  0  0  0  0  0  0  0  0  0  0
   18.9743   18.2831   25.1858 H   0  0  0  0  0  0  0  0  0  0  0  0
   20.7649   19.0591   24.3494 C   0  0  0  0  0  0  0  0  0  0  0  0
   21.4080   18.3369   24.8597 H   0  0  0  0  0  0  0  0  0  0  0  0
   21.2646   20.0314   24.3680 H   0  0  0  0  0  0  0  0  0  0  0  0
   20.5553   18.6116   22.8893 C   0  0  0  0  0  0  0  0  0  0  0  0
   21.5429   18.4472   22.4407 H   0  0  0  0  0  0  0  0  0  0  0  0
   20.0378   17.6433   22.8736 H   0  0  0  0  0  0  0  0  0  0  0  0
   19.7662   19.6500   22.0525 C   0  0  0  0  0  0  0  0  0  0  0  0
   20.3015   20.6097   22.0540 H   0  0  0  0  0  0  0  0  0  0  0  0
   18.7936   19.8380   22.5260 H   0  0  0  0  0  0  0  0  0  0  0  0
   19.5138   19.2014   20.5923 C   0  0  0  0  0  0  0  0  0  0  0  0
   18.9665   18.2483   20.5854 H   0  0  0  0  0  0  0  0  0  0  0  0
   18.8561   19.9361   20.1071 H   0  0  0  0  0  0  0  0  0  0  0  0
   20.8072   19.0646   19.7567 C   0  0  0  0  0  0  0  0  0  0  0  0
   21.4449   18.2533   20.1287 H   0  0  0  0  0  0  0  0  0  0  0  0
   20.5658   18.8394   18.7099 H   0  0  0  0  0  0  0  0  0  0  0  0
   21.3889   19.9954   19.7735 H   0  0  0  0  0  0  0  0  0  0  0  0
  1  2  1  0  0  0  0
  1  3  1  0  0  0  0
  1  4  1  0  0  0  0
  1  5  1  0  0  0  0
  5  6  1  0  0  0  0
  5  7  1  0  0  0  0
  5  8  1  0  0  0  0
  8  9  1  0  0  0  0
  8 10  1  0  0  0  0
  8 11  1  0  0  0  0
 11 12  1  0  0  0  0
 11 13  1  0  0  0  0
 11 14  1  0  0  0  0
 14 15  1  0  0  0  0
 14 16  1  0  0  0  0
 14 17  1  0  0  0  0
 17 18  1  0  0  0  0
 17 19  1  0  0  0  0
 17 20  1  0  0  0  0
M  END
> <VM2 Rank>
8

> <Conf_Id>
33

> <Probability>
4.06

> <Sum Probability>
72.62

> <Delta G>
0.896

> <G>
27.903

> <E>
5.022

> <-TS>
22.881

> <U+W>
-11.075

> <U>
47.080

> <W>
-58.154

> <W(PB)>
-60.053

> <W(SA)>
1.899

> <Valence>
1.943

> <Coulomb>
44.572

> <VdW>
0.565

> <VdW6>
-4.575

> <VdW12>
5.139

> <Bond>
0.158

> <Angle>
0.700

> <Pdih>
1.085

> <Idih>
0.000

> <Tether>
0.000

$$$$
VeraChem MOL file


 20 19  0  0  0  0  0  0  0  0999 V2000     
   19.8995   19.9232   24.9640 N   0  3  0  0  0  0  0  0  0  0  0  0
   19.6828   19.8717   25.9650 H   0  0  0  0  0  0  0  0  0  0  0  0
   20.6426   20.6205   24.8555 H   0  0  0  0  0  0  0  0  0  0  0  0
   19.0665   20.2934   24.4969 H   0  0  0  0  0  0  0  0  0  0  0  0
   20.3060   18.5731   24.4059 C   0  0  0  0  0  0  0  0  0  0  0  0
   19.4828   17.8738   24.5756 H   0  0  0  0  0  0  0  0  0  0  0  0
   21.1711   18.2247   24.9768 H   0  0  0  0  0  0  0  0  0  0  0  0
   20.6615   18.6017   22.9066 C   0  0  0  0  0  0  0  0  0  0  0  0
   21.4894   19.3040   22.7469 H   0  0  0  0  0  0  0  0  0  0  0  0
   21.0309   17.6087   22.6180 H   0  0  0  0  0  0  0  0  0  0  0  0
   19.4522   18.9787   22.0145 C   0  0  0  0  0  0  0  0  0  0  0  0
   19.1271   20.0044   22.2345 H   0  0  0  0  0  0  0  0  0  0  0  0
   18.6054   18.3245   22.2644 H   0  0  0  0  0  0  0  0  0  0  0  0
   19.7428   18.8507   20.4995 C   0  0  0  0  0  0  0  0  0  0  0  0
   20.0409   17.8195   20.2635 H   0  0  0  0  0  0  0  0  0  0  0  0
   18.8123   19.0356   19.9446 H   0  0  0  0  0  0  0  0  0  0  0  0
   20.8261   19.8326   19.9975 C   0  0  0  0  0  0  0  0  0  0  0  0
   21.8062   19.6113   20.4377 H   0  0  0  0  0  0  0  0  0  0  0  0
   20.9315   19.7636   18.9070 H   0  0  0  0  0  0  0  0  0  0  0  0
   20.5641   20.8697   20.2440 H   0  0  0  0  0  0  0  0  0  0  0  0
  1  2  1  0  0  0  0
  1  3  1  0  0  0  0
  1  4  1  0  0  0  0
  1  5  1  0  0  0  0
  5  6  1  0  0  0  0
  5  7  1  0  0  0  0
  5  8  1  0  0  0  0
  8  9  1  0  0  0  0
  8 10  1  0  0  0  0
  8 11  1  0  0  0  0
 11 12  1  0  0  0  0
 11 13  1  0  0  0  0
 11 14  1  0  0  0  0
 14 15  1  0  0  0  0
 14 16  1  0  0  0  0
 14 17  1  0  0  0  0
 17 18  1  0  0  0  0
 17 19  1  0  0  0  0
 17 20  1  0  0  0  0
M  END
> <VM2 Rank>
9

> <Conf_Id>
146

> <Probability>
4.00

> <Sum Probability>
76.62

> <Delta G>
0.905

> <G>
27.912

> <E>
5.006

> <-TS>
22.906

> <U+W>
-11.090

> <U>
47.052

> <W>
-58.142

> <W(PB)>
-60.061

> <W(SA)>
1.919

> <Valence>
1.910

> <Coulomb>
44.625

> <VdW>
0.517

> <VdW6>
-4.612

> <VdW12>
5.129

> <Bond>
0.153

> <Angle>
0.652

> <Pdih>
1.104

> <Idih>
0.000

> <Tether>
0.000

$$$$
VeraChem MOL file


 20 19  0  0  0  0  0  0  0  0999 V2000     
   20.5930   18.4270   24.9658 N   0  3  0  0  0  0  0  0  0  0  0  0
   20.3376   17.5513   24.5002 H   0  0  0  0  0  0  0  0  0  0  0  0
   21.6055   18.5433   24.8580 H   0  0  0  0  0  0  0  0  0  0  0  0
   20.4128   18.2969   25.9668 H   0  0  0  0  0  0  0  0  0  0  0  0
   19.8259   19.6087   24.4047 C   0  0  0  0  0  0  0  0  0  0  0  0
   20.1186   20.4951   24.9741 H   0  0  0  0  0  0  0  0  0  0  0  0
   18.7601   19.4328   24.5738 H   0  0  0  0  0  0  0  0  0  0  0  0
   20.0788   19.8586   22.9051 C   0  0  0  0  0  0  0  0  0  0  0  0
   19.5600   20.7816   22.6143 H   0  0  0  0  0  0  0  0  0  0  0  0
   21.1499   20.0362   22.7461 H   0  0  0  0  0  0  0  0  0  0  0  0
   19.5859   18.6904   22.0149 C   0  0  0  0  0  0  0  0  0  0  0  0
   18.5391   18.4674   22.2643 H   0  0  0  0  0  0  0  0  0  0  0  0
   20.1584   17.7799   22.2371 H   0  0  0  0  0  0  0  0  0  0  0  0
   19.6773   18.9920   20.4993 C   0  0  0  0  0  0  0  0  0  0  0  0
   19.2176   18.1613   19.9456 H   0  0  0  0  0  0  0  0  0  0  0  0
   19.0831   19.8853   20.2611 H   0  0  0  0  0  0  0  0  0  0  0  0
   21.1271   19.1833   19.9982 C   0  0  0  0  0  0  0  0  0  0  0  0
   21.1435   19.3062   18.9076 H   0  0  0  0  0  0  0  0  0  0  0  0
   21.5912   20.0752   20.4371 H   0  0  0  0  0  0  0  0  0  0  0  0
   21.7492   18.3137   20.2470 H   0  0  0  0  0  0  0  0  0  0  0  0
  1  2  1  0  0  0  0
  1  3  1  0  0  0  0
  1  4  1  0  0  0  0
  1  5  1  0  0  0  0
  5  6  1  0  0  0  0
  5  7  1  0  0  0  0
  5  8  1  0  0  0  0
  8  9  1  0  0  0  0
  8 10  1  0  0  0  0
  8 11  1  0  0  0  0
 11 12  1  0  0  0  0
 11 13  1  0  0  0  0
 11 14  1  0  0  0  0
 14 15  1  0  0  0  0
 14 16  1  0  0  0  0
 14 17  1  0  0  0  0
 17 18  1  0  0  0  0
 17 19  1  0  0  0  0
 17 20  1  0  0  0  0
M  END
> <VM2 Rank>
10

> <Conf_Id>
252

> <Probability>
3.88

> <Sum Probability>
80.50

> <Delta G>
0.924

> <G>
27.932

> <E>
5.026

> <-TS>
22.906

> <U+W>
-11.071

> <U>
47.052

> <W>
-58.123

> <W(PB)>
-60.033

> <W(SA)>
1.910

> <Valence>
1.910

> <Coulomb>
44.625

> <VdW>
0.518

> <VdW6>
-4.612

> <VdW12>
5.129

> <Bond>
0.153

> <Angle>
0.652

> <Pdih>
1.104

> <Idih>
0.000

> <Tether>
0.000

$$$$
VeraChem MOL file


 20 19  0  0  0  0  0  0  0  0999 V2000     
   19.9267   19.7544   25.1737 N   0  3  0  0  0  0  0  0  0  0  0  0
   20.6495   20.1539   25.7816 H   0  0  0  0  0  0  0  0  0  0  0  0
   19.2432   20.4971   24.9966 H   0  0  0  0  0  0  0  0  0  0  0  0
   19.4491   19.0288   25.7175 H   0  0  0  0  0  0  0  0  0  0  0  0
   20.5123   19.2051   23.8884 C   0  0  0  0  0  0  0  0  0  0  0  0
   21.2502   18.4426   24.1519 H   0  0  0  0  0  0  0  0  0  0  0  0
   21.0292   20.0225   23.3787 H   0  0  0  0  0  0  0  0  0  0  0  0
   19.4516   18.5974   22.9513 C   0  0  0  0  0  0  0  0  0  0  0  0
   18.9107   17.8059   23.4867 H   0  0  0  0  0  0  0  0  0  0  0  0
   18.7052   19.3596   22.6936 H   0  0  0  0  0  0  0  0  0  0  0  0
   20.0646   17.9983   21.6608 C   0  0  0  0  0  0  0  0  0  0  0  0
   19.2580   17.5737   21.0472 H   0  0  0  0  0  0  0  0  0  0  0  0
   20.7133   17.1541   21.9328 H   0  0  0  0  0  0  0  0  0  0  0  0
   20.8812   18.9985   20.8029 C   0  0  0  0  0  0  0  0  0  0  0  0
   21.7554   19.3549   21.3645 H   0  0  0  0  0  0  0  0  0  0  0  0
   21.2817   18.4651   19.9294 H   0  0  0  0  0  0  0  0  0  0  0  0
   20.0516   20.2063   20.3110 C   0  0  0  0  0  0  0  0  0  0  0  0
   19.7279   20.8396   21.1463 H   0  0  0  0  0  0  0  0  0  0  0  0
   20.6478   20.8323   19.6345 H   0  0  0  0  0  0  0  0  0  0  0  0
   19.1595   19.8760   19.7634 H   0  0  0  0  0  0  0  0  0  0  0  0
  1  2  1  0  0  0  0
  1  3  1  0  0  0  0
  1  4  1  0  0  0  0
  1  5  1  0  0  0  0
  5  6  1  0  0  0  0
  5  7  1  0  0  0  0
  5  8  1  0  0  0  0
  8  9  1  0  0  0  0
  8 10  1  0  0  0  0
  8 11  1  0  0  0  0
 11 12  1  0  0  0  0
 11 13  1  0  0  0  0
 11 14  1  0  0  0  0
 14 15  1  0  0  0  0
 14 16  1  0  0  0  0
 14 17  1  0  0  0  0
 17 18  1  0  0  0  0
 17 19  1  0  0  0  0
 17 20  1  0  0  0  0
M  END
> <VM2 Rank>
11

> <Conf_Id>
250

> <Probability>
3.23

> <Sum Probability>
83.73

> <Delta G>
1.033

> <G>
28.040

> <E>
5.026

> <-TS>
23.014

> <U+W>
-11.070

> <U>
47.078

> <W>
-58.148

> <W(PB)>
-60.054

> <W(SA)>
1.906

> <Valence>
2.039

> <Coulomb>
44.655

> <VdW>
0.383

> <VdW6>
-4.912

> <VdW12>
5.295

> <Bond>
0.159

> <Angle>
0.856

> <Pdih>
1.024

> <Idih>
0.000

> <Tether>
0.000

$$$$
VeraChem MOL file


 20 19  0  0  0  0  0  0  0  0999 V2000     
   19.7507   18.5918   25.1484 N   0  3  0  0  0  0  0  0  0  0  0  0
   18.7438   18.7792   25.1852 H   0  0  0  0  0  0  0  0  0  0  0  0
   19.8701   17.6559   24.7501 H   0  0  0  0  0  0  0  0  0  0  0  0
   20.0810   18.5478   26.1182 H   0  0  0  0  0  0  0  0  0  0  0  0
   20.4926   19.6454   24.3487 C   0  0  0  0  0  0  0  0  0  0  0  0
   21.5579   19.4001   24.3688 H   0  0  0  0  0  0  0  0  0  0  0  0
   20.3551   20.6037   24.8570 H   0  0  0  0  0  0  0  0  0  0  0  0
   20.0168   19.7710   22.8879 C   0  0  0  0  0  0  0  0  0  0  0  0
   18.9431   20.0003   22.8708 H   0  0  0  0  0  0  0  0  0  0  0  0
   20.5287   20.6308   22.4381 H   0  0  0  0  0  0  0  0  0  0  0  0
   20.3018   18.4966   22.0539 C   0  0  0  0  0  0  0  0  0  0  0  0
   19.8175   17.6331   22.5287 H   0  0  0  0  0  0  0  0  0  0  0  0
   21.3804   18.2863   22.0568 H   0  0  0  0  0  0  0  0  0  0  0  0
   19.7977   18.5902   20.5931 C   0  0  0  0  0  0  0  0  0  0  0  0
   19.9351   17.6127   20.1099 H   0  0  0  0  0  0  0  0  0  0  0  0
   18.7164   18.7870   20.5847 H   0  0  0  0  0  0  0  0  0  0  0  0
   20.5285   19.6649   19.7560 C   0  0  0  0  0  0  0  0  0  0  0  0
   21.6149   19.5089   19.7742 H   0  0  0  0  0  0  0  0  0  0  0  0
   20.2017   19.6237   18.7089 H   0  0  0  0  0  0  0  0  0  0  0  0
   20.3196   20.6764   20.1257 H   0  0  0  0  0  0  0  0  0  0  0  0
  1  2  1  0  0  0  0
  1  3  1  0  0  0  0
  1  4  1  0  0  0  0
  1  5  1  0  0  0  0
  5  6  1  0  0  0  0
  5  7  1  0  0  0  0
  5  8  1  0  0  0  0
  8  9  1  0  0  0  0
  8 10  1  0  0  0  0
  8 11  1  0  0  0  0
 11 12  1  0  0  0  0
 11 13  1  0  0  0  0
 11 14  1  0  0  0  0
 14 15  1  0  0  0  0
 14 16  1  0  0  0  0
 14 17  1  0  0  0  0
 17 18  1  0  0  0  0
 17 19  1  0  0  0  0
 17 20  1  0  0  0  0
M  END
> <VM2 Rank>
12

> <Conf_Id>
86

> <Probability>
3.21

> <Sum Probability>
86.93

> <Delta G>
1.037

> <G>
28.045

> <E>
5.163

> <-TS>
22.881

> <U+W>
-10.933

> <U>
47.080

> <W>
-58.013

> <W(PB)>
-59.916

> <W(SA)>
1.903

> <Valence>
1.943

> <Coulomb>
44.572

> <VdW>
0.565

> <VdW6>
-4.575

> <VdW12>
5.139

> <Bond>
0.158

> <Angle>
0.700

> <Pdih>
1.085

> <Idih>
0.000

> <Tether>
0.000

$$$$
VeraChem MOL file


 20 19  0  0  0  0  0  0  0  0999 V2000     
   20.5231   19.9295   24.7152 N   0  3  0  0  0  0  0  0  0  0  0  0
   21.1745   19.3571   25.2612 H   0  0  0  0  0  0  0  0  0  0  0  0
   21.0695   20.3994   23.9873 H   0  0  0  0  0  0  0  0  0  0  0  0
   20.1687   20.6589   25.3427 H   0  0  0  0  0  0  0  0  0  0  0  0
   19.3999   19.0989   24.1256 C   0  0  0  0  0  0  0  0  0  0  0  0
   18.7286   19.7709   23.5849 H   0  0  0  0  0  0  0  0  0  0  0  0
   18.8407   18.6586   24.9557 H   0  0  0  0  0  0  0  0  0  0  0  0
   19.8850   17.9770   23.1845 C   0  0  0  0  0  0  0  0  0  0  0  0
   20.5211   17.2835   23.7504 H   0  0  0  0  0  0  0  0  0  0  0  0
   19.0151   17.3934   22.8550 H   0  0  0  0  0  0  0  0  0  0  0  0
   20.6594   18.4848   21.9421 C   0  0  0  0  0  0  0  0  0  0  0  0
   20.9821   17.6156   21.3522 H   0  0  0  0  0  0  0  0  0  0  0  0
   21.5786   18.9962   22.2573 H   0  0  0  0  0  0  0  0  0  0  0  0
   19.8209   19.4234   21.0422 C   0  0  0  0  0  0  0  0  0  0  0  0
   18.8913   18.9183   20.7445 H   0  0  0  0  0  0  0  0  0  0  0  0
   19.5282   20.3231   21.6001 H   0  0  0  0  0  0  0  0  0  0  0  0
   20.5998   19.8466   19.7784 C   0  0  0  0  0  0  0  0  0  0  0  0
   21.5205   20.3829   20.0429 H   0  0  0  0  0  0  0  0  0  0  0  0
   20.8749   18.9734   19.1727 H   0  0  0  0  0  0  0  0  0  0  0  0
   19.9909   20.5117   19.1524 H   0  0  0  0  0  0  0  0  0  0  0  0
  1  2  1  0  0  0  0
  1  3  1  0  0  0  0
  1  4  1  0  0  0  0
  1  5  1  0  0  0  0
  5  6  1  0  0  0  0
  5  7  1  0  0  0  0
  5  8  1  0  0  0  0
  8  9  1  0  0  0  0
  8 10  1  0  0  0  0
  8 11  1  0  0  0  0
 11 12  1  0  0  0  0
 11 13  1  0  0  0  0
 11 14  1  0  0  0  0
 14 15  1  0  0  0  0
 14 16  1  0  0  0  0
 14 17  1  0  0  0  0
 17 18  1  0  0  0  0
 17 19  1  0  0  0  0
 17 20  1  0  0  0  0
M  END
> <VM2 Rank>
13

> <Conf_Id>
125

> <Probability>
3.14

> <Sum Probability>
90.07

> <Delta G>
1.050

> <G>
28.057

> <E>
5.090

> <-TS>
22.967

> <U+W>
-11.006

> <U>
47.126

> <W>
-58.132

> <W(PB)>
-60.042

> <W(SA)>
1.910

> <Valence>
1.704

> <Coulomb>
45.049

> <VdW>
0.372

> <VdW6>
-4.760

> <VdW12>
5.132

> <Bond>
0.143

> <Angle>
0.634

> <Pdih>
0.927

> <Idih>
0.000

> <Tether>
0.000

$$$$
VeraChem MOL file


 20 19  0  0  0  0  0  0  0  0999 V2000     
   20.4830   18.5586   25.1751 N   0  3  0  0  0  0  0  0  0  0  0  0
   20.6108   17.5569   25.0002 H   0  0  0  0  0  0  0  0  0  0  0  0
   21.2536   18.8552   25.7831 H   0  0  0  0  0  0  0  0  0  0  0  0
   19.6199   18.6619   25.7179 H   0  0  0  0  0  0  0  0  0  0  0  0
   20.4414   19.3576   23.8882 C   0  0  0  0  0  0  0  0  0  0  0  0
   21.3999   19.2252   23.3796 H   0  0  0  0  0  0  0  0  0  0  0  0
   20.3335   20.4138   24.1493 H   0  0  0  0  0  0  0  0  0  0  0  0
   19.2940   18.9362   22.9509 C   0  0  0  0  0  0  0  0  0  0  0  0
   19.3961   17.8737   22.6955 H   0  0  0  0  0  0  0  0  0  0  0  0
   18.3397   19.0337   23.4852 H   0  0  0  0  0  0  0  0  0  0  0  0
   19.2320   19.7882   21.6585 C   0  0  0  0  0  0  0  0  0  0  0  0
   19.0041   20.8288   21.9281 H   0  0  0  0  0  0  0  0  0  0  0  0
   18.3882   19.4436   21.0448 H   0  0  0  0  0  0  0  0  0  0  0  0
   20.5239   19.7665   20.8019 C   0  0  0  0  0  0  0  0  0  0  0  0
   20.3748   20.4146   19.9269 H   0  0  0  0  0  0  0  0  0  0  0  0
   21.3591   20.2068   21.3635 H   0  0  0  0  0  0  0  0  0  0  0  0
   20.9137   18.3529   20.3135 C   0  0  0  0  0  0  0  0  0  0  0  0
   20.0869   17.8822   19.7660 H   0  0  0  0  0  0  0  0  0  0  0  0
   21.7773   18.4041   19.6378 H   0  0  0  0  0  0  0  0  0  0  0  0
   21.1886   17.6991   21.1505 H   0  0  0  0  0  0  0  0  0  0  0  0
  1  2  1  0  0  0  0
  1  3  1  0  0  0  0
  1  4  1  0  0  0  0
  1  5  1  0  0  0  0
  5  6  1  0  0  0  0
  5  7  1  0  0  0  0
  5  8  1  0  0  0  0
  8  9  1  0  0  0  0
  8 10  1  0  0  0  0
  8 11  1  0  0  0  0
 11 12  1  0  0  0  0
 11 13  1  0  0  0  0
 11 14  1  0  0  0  0
 14 15  1  0  0  0  0
 14 16  1  0  0  0  0
 14 17  1  0  0  0  0
 17 18  1  0  0  0  0
 17 19  1  0  0  0  0
 17 20  1  0  0  0  0
M  END
> <VM2 Rank>
14

> <Conf_Id>
240

> <Probability>
3.11

> <Sum Probability>
93.18

> <Delta G>
1.055

> <G>
28.063

> <E>
5.048

> <-TS>
23.015

> <U+W>
-11.048

> <U>
47.078

> <W>
-58.126

> <W(PB)>
-60.031

> <W(SA)>
1.905

> <Valence>
2.039

> <Coulomb>
44.655

> <VdW>
0.383

> <VdW6>
-4.913

> <VdW12>
5.296

> <Bond>
0.159

> <Angle>
0.856

> <Pdih>
1.024

> <Idih>
0.000

> <Tether>
0.000

$$$$
VeraChem MOL file


 20 19  0  0  0  0  0  0  0  0999 V2000     
   21.0015   18.9010   24.7165 N   0  3  0  0  0  0  0  0  0  0  0  0
   21.7136   19.0146   23.9890 H   0  0  0  0  0  0  0  0  0  0  0  0
   20.9828   19.7690   25.2607 H   0  0  0  0  0  0  0  0  0  0  0  0
   21.3305   18.1613   25.3458 H   0  0  0  0  0  0  0  0  0  0  0  0
   19.6432   18.5759   24.1262 C   0  0  0  0  0  0  0  0  0  0  0  0
   18.9454   18.4336   24.9560 H   0  0  0  0  0  0  0  0  0  0  0  0
   19.7252   17.6284   23.5875 H   0  0  0  0  0  0  0  0  0  0  0  0
   19.0985   19.6677   23.1824 C   0  0  0  0  0  0  0  0  0  0  0  0
   18.0921   19.3776   22.8525 H   0  0  0  0  0  0  0  0  0  0  0  0
   18.9775   20.6021   23.7463 H   0  0  0  0  0  0  0  0  0  0  0  0
   19.9870   19.9303   21.9403 C   0  0  0  0  0  0  0  0  0  0  0  0
   20.9701   20.3044   22.2557 H   0  0  0  0  0  0  0  0  0  0  0  0
   19.5308   20.7358   21.3483 H   0  0  0  0  0  0  0  0  0  0  0  0
   20.1655   18.6824   21.0431 C   0  0  0  0  0  0  0  0  0  0  0  0
   20.6645   17.8800   21.6031 H   0  0  0  0  0  0  0  0  0  0  0  0
   19.1806   18.2963   20.7452 H   0  0  0  0  0  0  0  0  0  0  0  0
   20.9923   19.0028   19.7795 C   0  0  0  0  0  0  0  0  0  0  0  0
   20.5023   19.7746   19.1717 H   0  0  0  0  0  0  0  0  0  0  0  0
   21.9953   19.3619   20.0442 H   0  0  0  0  0  0  0  0  0  0  0  0
   21.1092   18.1073   19.1554 H   0  0  0  0  0  0  0  0  0  0  0  0
  1  2  1  0  0  0  0
  1  3  1  0  0  0  0
  1  4  1  0  0  0  0
  1  5  1  0  0  0  0
  5  6  1  0  0  0  0
  5  7  1  0  0  0  0
  5  8  1  0  0  0  0
  8  9  1  0  0  0  0
  8 10  1  0  0  0  0
  8 11  1  0  0  0  0
 11 12  1  0  0  0  0
 11 13  1  0  0  0  0
 11 14  1  0  0  0  0
 14 15  1  0  0  0  0
 14 16  1  0  0  0  0
 14 17  1  0  0  0  0
 17 18  1  0  0  0  0
 17 19  1  0  0  0  0
 17 20  1  0  0  0  0
M  END
> <VM2 Rank>
15

> <Conf_Id>
104

> <Probability>
3.09

> <Sum Probability>
96.27

> <Delta G>
1.060

> <G>
28.067

> <E>
5.100

> <-TS>
22.967

> <U+W>
-10.997

> <U>
47.126

> <W>
-58.122

> <W(PB)>
-60.036

> <W(SA)>
1.913

> <Valence>
1.704

> <Coulomb>
45.050

> <VdW>
0.372

> <VdW6>
-4.760

> <VdW12>
5.132

> <Bond>
0.144

> <Angle>
0.634

> <Pdih>
0.927

> <Idih>
0.000

> <Tether>
0.000

$$$$
VeraChem MOL file


 20 19  0  0  0  0  0  0  0  0999 V2000     
   19.3249   19.3700   24.7367 N   0  3  0  0  0  0  0  0  0  0  0  0
   18.5130   19.1674   24.1462 H   0  0  0  0  0  0  0  0  0  0  0  0
   19.4601   18.5626   25.3530 H   0  0  0  0  0  0  0  0  0  0  0  0
   19.0712   20.1630   25.3351 H   0  0  0  0  0  0  0  0  0  0  0  0
   20.5618   19.6610   23.9093 C   0  0  0  0  0  0  0  0  0  0  0  0
   21.3761   19.8976   24.5996 H   0  0  0  0  0  0  0  0  0  0  0  0
   20.3636   20.5482   23.3022 H   0  0  0  0  0  0  0  0  0  0  0  0
   20.9868   18.4918   22.9980 C   0  0  0  0  0  0  0  0  0  0  0  0
   21.9266   18.7572   22.4971 H   0  0  0  0  0  0  0  0  0  0  0  0
   21.2160   17.6165   23.6200 H   0  0  0  0  0  0  0  0  0  0  0  0
   19.9241   18.1003   21.9376 C   0  0  0  0  0  0  0  0  0  0  0  0
   19.0438   17.6810   22.4429 H   0  0  0  0  0  0  0  0  0  0  0  0
   20.3260   17.2869   21.3179 H   0  0  0  0  0  0  0  0  0  0  0  0
   19.4686   19.2596   21.0148 C   0  0  0  0  0  0  0  0  0  0  0  0
   18.7051   18.8776   20.3227 H   0  0  0  0  0  0  0  0  0  0  0  0
   18.9753   20.0440   21.6046 H   0  0  0  0  0  0  0  0  0  0  0  0
   20.6218   19.8772   20.1916 C   0  0  0  0  0  0  0  0  0  0  0  0
   20.2350   20.6296   19.4922 H   0  0  0  0  0  0  0  0  0  0  0  0
   21.3564   20.3741   20.8374 H   0  0  0  0  0  0  0  0  0  0  0  0
   21.1428   19.1099   19.6046 H   0  0  0  0  0  0  0  0  0  0  0  0
  1  2  1  0  0  0  0
  1  3  1  0  0  0  0
  1  4  1  0  0  0  0
  1  5  1  0  0  0  0
  5  6  1  0  0  0  0
  5  7  1  0  0  0  0
  5  8  1  0  0  0  0
  8  9  1  0  0  0  0
  8 10  1  0  0  0  0
  8 11  1  0  0  0  0
 11 12  1  0  0  0  0
 11 13  1  0  0  0  0
 11 14  1  0  0  0  0
 14 15  1  0  0  0  0
 14 16  1  0  0  0  0
 14 17  1  0  0  0  0
 17 18  1  0  0  0  0
 17 19  1  0  0  0  0
 17 20  1  0  0  0  0
M  END
> <VM2 Rank>
16

> <Conf_Id>
73

> <Probability>
1.42

> <Sum Probability>
97.69

> <Delta G>
1.521

> <G>
28.529

> <E>
5.311

> <-TS>
23.217

> <U+W>
-10.785

> <U>
47.562

> <W>
-58.347

> <W(PB)>
-60.222

> <W(SA)>
1.875

> <Valence>
2.149

> <Coulomb>
45.034

> <VdW>
0.378

> <VdW6>
-5.599

> <VdW12>
5.977

> <Bond>
0.185

> <Angle>
0.935

> <Pdih>
1.028

> <Idih>
0.000

> <Tether>
0.000

$$$$
VeraChem MOL file


 20 19  0  0  0  0  0  0  0  0999 V2000     
   19.8007   18.3453   24.7379 N   0  3  0  0  0  0  0  0  0  0  0  0
   19.2706   18.9708   25.3525 H   0  0  0  0  0  0  0  0  0  0  0  0
   19.1225   17.8547   24.1477 H   0  0  0  0  0  0  0  0  0  0  0  0
   20.2422   17.6409   25.3380 H   0  0  0  0  0  0  0  0  0  0  0  0
   20.8219   19.1008   23.9100 C   0  0  0  0  0  0  0  0  0  0  0  0
   21.3723   18.3758   23.3047 H   0  0  0  0  0  0  0  0  0  0  0  0
   21.5274   19.5716   24.6000 H   0  0  0  0  0  0  0  0  0  0  0  0
   20.2038   20.1782   22.9960 C   0  0  0  0  0  0  0  0  0  0  0  0
   19.6824   20.9194   23.6161 H   0  0  0  0  0  0  0  0  0  0  0  0
   21.0135   20.7239   22.4948 H   0  0  0  0  0  0  0  0  0  0  0  0
   19.2200   19.6169   21.9358 C   0  0  0  0  0  0  0  0  0  0  0  0
   18.8585   20.4476   21.3141 H   0  0  0  0  0  0  0  0  0  0  0  0
   18.3311   19.2160   22.4410 H   0  0  0  0  0  0  0  0  0  0  0  0
   19.8125   18.5190   21.0157 C   0  0  0  0  0  0  0  0  0  0  0  0
   20.0928   17.6371   21.6075 H   0  0  0  0  0  0  0  0  0  0  0  0
   19.0285   18.1809   20.3236 H   0  0  0  0  0  0  0  0  0  0  0  0
   21.0292   18.9998   20.1927 C   0  0  0  0  0  0  0  0  0  0  0  0
   20.7798   19.8918   19.6037 H   0  0  0  0  0  0  0  0  0  0  0  0
   21.8823   19.2415   20.8388 H   0  0  0  0  0  0  0  0  0  0  0  0
   21.3549   18.2174   19.4951 H   0  0  0  0  0  0  0  0  0  0  0  0
  1  2  1  0  0  0  0
  1  3  1  0  0  0  0
  1  4  1  0  0  0  0
  1  5  1  0  0  0  0
  5  6  1  0  0  0  0
  5  7  1  0  0  0  0
  5  8  1  0  0  0  0
  8  9  1  0  0  0  0
  8 10  1  0  0  0  0
  8 11  1  0  0  0  0
 11 12  1  0  0  0  0
 11 13  1  0  0  0  0
 11 14  1  0  0  0  0
 14 15  1  0  0  0  0
 14 16  1  0  0  0  0
 14 17  1  0  0  0  0
 17 18  1  0  0  0  0
 17 19  1  0  0  0  0
 17 20  1  0  0  0  0
M  END
> <VM2 Rank>
17

> <Conf_Id>
89

> <Probability>
1.34

> <Sum Probability>
99.03

> <Delta G>
1.556

> <G>
28.563

> <E>
5.346

> <-TS>
23.218

> <U+W>
-10.751

> <U>
47.562

> <W>
-58.307

> <W(PB)>
-60.184

> <W(SA)>
1.877

> <Valence>
2.149

> <Coulomb>
45.035

> <VdW>
0.378

> <VdW6>
-5.599

> <VdW12>
5.977

> <Bond>
0.185

> <Angle>
0.935

> <Pdih>
1.029

> <Idih>
0.000

> <Tether>
0.000

$$$$
VeraChem MOL file


 20 19  0  0  0  0  0  0  0  0999 V2000     
   20.4973   18.6694   25.2001 N   0  3  0  0  0  0  0  0  0  0  0  0
   21.4152   18.4421   25.5965 H   0  0  0  0  0  0  0  0  0  0  0  0
   20.1102   19.4315   25.7655 H   0  0  0  0  0  0  0  0  0  0  0  0
   19.8987   17.8507   25.3480 H   0  0  0  0  0  0  0  0  0  0  0  0
   20.5933   19.0436   23.7347 C   0  0  0  0  0  0  0  0  0  0  0  0
   21.0390   18.1985   23.2052 H   0  0  0  0  0  0  0  0  0  0  0  0
   21.2647   19.9020   23.6479 H   0  0  0  0  0  0  0  0  0  0  0  0
   19.2298   19.3853   23.1079 C   0  0  0  0  0  0  0  0  0  0  0  0
   18.5795   18.5011   23.1427 H   0  0  0  0  0  0  0  0  0  0  0  0
   18.7415   20.1535   23.7222 H   0  0  0  0  0  0  0  0  0  0  0  0
   19.3209   19.9069   21.6513 C   0  0  0  0  0  0  0  0  0  0  0  0
   19.9223   20.8258   21.6149 H   0  0  0  0  0  0  0  0  0  0  0  0
   18.3085   20.2027   21.3431 H   0  0  0  0  0  0  0  0  0  0  0  0
   19.8535   18.8774   20.6210 C   0  0  0  0  0  0  0  0  0  0  0  0
   19.4945   17.8688   20.8693 H   0  0  0  0  0  0  0  0  0  0  0  0
   19.4220   19.1177   19.6391 H   0  0  0  0  0  0  0  0  0  0  0  0
   21.3933   18.8774   20.4730 C   0  0  0  0  0  0  0  0  0  0  0  0
   21.8992   18.5568   21.3896 H   0  0  0  0  0  0  0  0  0  0  0  0
   21.6997   18.1907   19.6734 H   0  0  0  0  0  0  0  0  0  0  0  0
   21.7636   19.8771   20.2112 H   0  0  0  0  0  0  0  0  0  0  0  0
  1  2  1  0  0  0  0
  1  3  1  0  0  0  0
  1  4  1  0  0  0  0
  1  5  1  0  0  0  0
  5  6  1  0  0  0  0
  5  7  1  0  0  0  0
  5  8  1  0  0  0  0
  8  9  1  0  0  0  0
  8 10  1  0  0  0  0
  8 11  1  0  0  0  0
 11 12  1  0  0  0  0
 11 13  1  0  0  0  0
 11 14  1  0  0  0  0
 14 15  1  0  0  0  0
 14 16  1  0  0  0  0
 14 17  1  0  0  0  0
 17 18  1  0  0  0  0
 17 19  1  0  0  0  0
 17 20  1  0  0  0  0
M  END
> <VM2 Rank>
18

> <Conf_Id>
70

> <Probability>
0.22

> <Sum Probability>
99.25

> <Delta G>
2.633

> <G>
29.640

> <E>
6.955

> <-TS>
22.685

> <U+W>
-9.141

> <U>
48.916

> <W>
-58.058

> <W(PB)>
-59.981

> <W(SA)>
1.924

> <Valence>
3.785

> <Coulomb>
44.716

> <VdW>
0.415

> <VdW6>
-4.836

> <VdW12>
5.251

> <Bond>
0.175

> <Angle>
1.196

> <Pdih>
2.415

> <Idih>
0.000

> <Tether>
0.000

$$$$
VeraChem MOL file


 20 19  0  0  0  0  0  0  0  0999 V2000     
   20.0214   19.6940   25.1988 N   0  3  0  0  0  0  0  0  0  0  0  0
   20.4394   20.5429   25.5939 H   0  0  0  0  0  0  0  0  0  0  0  0
   19.0095   19.7648   25.3457 H   0  0  0  0  0  0  0  0  0  0  0  0
   20.3536   18.9078   25.7661 H   0  0  0  0  0  0  0  0  0  0  0  0
   20.3705   19.5231   23.7341 C   0  0  0  0  0  0  0  0  0  0  0  0
   21.4597   19.4824   23.6483 H   0  0  0  0  0  0  0  0  0  0  0  0
   20.0125   20.4077   23.2025 H   0  0  0  0  0  0  0  0  0  0  0  0
   19.7528   18.2594   23.1093 C   0  0  0  0  0  0  0  0  0  0  0  0
   20.0244   17.3920   23.7255 H   0  0  0  0  0  0  0  0  0  0  0  0
   18.6577   18.3328   23.1430 H   0  0  0  0  0  0  0  0  0  0  0  0
   20.2115   17.9898   21.6536 C   0  0  0  0  0  0  0  0  0  0  0  0
   19.7847   17.0247   21.3469 H   0  0  0  0  0  0  0  0  0  0  0  0
   21.3016   17.8565   21.6184 H   0  0  0  0  0  0  0  0  0  0  0  0
   19.7692   19.0588   20.6209 C   0  0  0  0  0  0  0  0  0  0  0  0
   19.6752   18.5722   19.6398 H   0  0  0  0  0  0  0  0  0  0  0  0
   18.7668   19.4357   20.8676 H   0  0  0  0  0  0  0  0  0  0  0  0
   20.7627   20.2350   20.4714 C   0  0  0  0  0  0  0  0  0  0  0  0
   21.7656   19.8726   20.2109 H   0  0  0  0  0  0  0  0  0  0  0  0
   20.4362   20.9107   19.6702 H   0  0  0  0  0  0  0  0  0  0  0  0
   20.8435   20.8301   21.3869 H   0  0  0  0  0  0  0  0  0  0  0  0
  1  2  1  0  0  0  0
  1  3  1  0  0  0  0
  1  4  1  0  0  0  0
  1  5  1  0  0  0  0
  5  6  1  0  0  0  0
  5  7  1  0  0  0  0
  5  8  1  0  0  0  0
  8  9  1  0  0  0  0
  8 10  1  0  0  0  0
  8 11  1  0  0  0  0
 11 12  1  0  0  0  0
 11 13  1  0  0  0  0
 11 14  1  0  0  0  0
 14 15  1  0  0  0  0
 14 16  1  0  0  0  0
 14 17  1  0  0  0  0
 17 18  1  0  0  0  0
 17 19  1  0  0  0  0
 17 20  1  0  0  0  0
M  END
> <VM2 Rank>
19

> <Conf_Id>
266

> <Probability>
0.21

> <Sum Probability>
99.46

> <Delta G>
2.665

> <G>
29.672

> <E>
6.986

> <-TS>
22.686

> <U+W>
-9.110

> <U>
48.916

> <W>
-58.026

> <W(PB)>
-59.935

> <W(SA)>
1.909

> <Valence>
3.785

> <Coulomb>
44.716

> <VdW>
0.415

> <VdW6>
-4.836

> <VdW12>
5.251

> <Bond>
0.175

> <Angle>
1.195

> <Pdih>
2.415

> <Idih>
0.000

> <Tether>
0.000

$$$$
VeraChem MOL file


 20 19  0  0  0  0  0  0  0  0999 V2000     
   18.9506   19.5069   24.3938 N   0  3  0  0  0  0  0  0  0  0  0  0
   18.5750   19.8376   23.5013 H   0  0  0  0  0  0  0  0  0  0  0  0
   18.4532   18.6424   24.6297 H   0  0  0  0  0  0  0  0  0  0  0  0
   18.6935   20.2003   25.1042 H   0  0  0  0  0  0  0  0  0  0  0  0
   20.4511   19.2940   24.3337 C   0  0  0  0  0  0  0  0  0  0  0  0
   20.7643   18.9561   25.3253 H   0  0  0  0  0  0  0  0  0  0  0  0
   20.9322   20.2559   24.1371 H   0  0  0  0  0  0  0  0  0  0  0  0
   20.9052   18.2570   23.2849 C   0  0  0  0  0  0  0  0  0  0  0  0
   21.8932   17.8861   23.5887 H   0  0  0  0  0  0  0  0  0  0  0  0
   20.2379   17.3852   23.3039 H   0  0  0  0  0  0  0  0  0  0  0  0
   21.0297   18.8111   21.8422 C   0  0  0  0  0  0  0  0  0  0  0  0
   21.4673   18.0252   21.2111 H   0  0  0  0  0  0  0  0  0  0  0  0
   21.7450   19.6452   21.8308 H   0  0  0  0  0  0  0  0  0  0  0  0
   19.6929   19.2694   21.2136 C   0  0  0  0  0  0  0  0  0  0  0  0
   18.9392   18.4764   21.3183 H   0  0  0  0  0  0  0  0  0  0  0  0
   19.3130   20.1536   21.7407 H   0  0  0  0  0  0  0  0  0  0  0  0
   19.8584   19.6215   19.7197 C   0  0  0  0  0  0  0  0  0  0  0  0
   20.2004   18.7518   19.1437 H   0  0  0  0  0  0  0  0  0  0  0  0
   18.9038   19.9537   19.2915 H   0  0  0  0  0  0  0  0  0  0  0  0
   20.5883   20.4302   19.5832 H   0  0  0  0  0  0  0  0  0  0  0  0
  1  2  1  0  0  0  0
  1  3  1  0  0  0  0
  1  4  1  0  0  0  0
  1  5  1  0  0  0  0
  5  6  1  0  0  0  0
  5  7  1  0  0  0  0
  5  8  1  0  0  0  0
  8  9  1  0  0  0  0
  8 10  1  0  0  0  0
  8 11  1  0  0  0  0
 11 12  1  0  0  0  0
 11 13  1  0  0  0  0
 11 14  1  0  0  0  0
 14 15  1  0  0  0  0
 14 16  1  0  0  0  0
 14 17  1  0  0  0  0
 17 18  1  0  0  0  0
 17 19  1  0  0  0  0
 17 20  1  0  0  0  0
M  END
> <VM2 Rank>
20

> <Conf_Id>
260

> <Probability>
0.14

> <Sum Probability>
99.60

> <Delta G>
2.921

> <G>
29.929

> <E>
7.125

> <-TS>
22.803

> <U+W>
-8.971

> <U>
49.216

> <W>
-58.187

> <W(PB)>
-60.089

> <W(SA)>
1.902

> <Valence>
2.929

> <Coulomb>
46.006

> <VdW>
0.281

> <VdW6>
-4.909

> <VdW12>
5.190

> <Bond>
0.156

> <Angle>
0.974

> <Pdih>
1.799

> <Idih>
0.000

> <Tether>
0.000

$$$$
VeraChem MOL file


 20 19  0  0  0  0  0  0  0  0999 V2000     
   19.6642   17.9703   24.3956 N   0  3  0  0  0  0  0  0  0  0  0  0
   18.6826   18.1485   24.6303 H   0  0  0  0  0  0  0  0  0  0  0  0
   19.6752   17.4682   23.5041 H   0  0  0  0  0  0  0  0  0  0  0  0
   20.0275   17.3279   25.1077 H   0  0  0  0  0  0  0  0  0  0  0  0
   20.4698   19.2540   24.3337 C   0  0  0  0  0  0  0  0  0  0  0  0
   21.5152   19.0005   24.1385 H   0  0  0  0  0  0  0  0  0  0  0  0
   20.4128   19.7132   25.3244 H   0  0  0  0  0  0  0  0  0  0  0  0
   19.9714   20.2679   23.2825 C   0  0  0  0  0  0  0  0  0  0  0  0
   18.8747   20.3205   23.3005 H   0  0  0  0  0  0  0  0  0  0  0  0
   20.3250   21.2626   23.5847 H   0  0  0  0  0  0  0  0  0  0  0  0
   20.4762   20.0028   21.8408 C   0  0  0  0  0  0  0  0  0  0  0  0
   21.5750   20.0113   21.8303 H   0  0  0  0  0  0  0  0  0  0  0  0
   20.1585   20.8428   21.2076 H   0  0  0  0  0  0  0  0  0  0  0  0
   19.9648   18.6843   21.2144 C   0  0  0  0  0  0  0  0  0  0  0  0
   20.3950   17.8248   21.7435 H   0  0  0  0  0  0  0  0  0  0  0  0
   18.8725   18.6201   21.3184 H   0  0  0  0  0  0  0  0  0  0  0  0
   20.3417   18.5807   19.7210 C   0  0  0  0  0  0  0  0  0  0  0  0
   19.9803   17.6361   19.2943 H   0  0  0  0  0  0  0  0  0  0  0  0
   19.8980   19.4018   19.1430 H   0  0  0  0  0  0  0  0  0  0  0  0
   21.4306   18.6167   19.5853 H   0  0  0  0  0  0  0  0  0  0  0  0
  1  2  1  0  0  0  0
  1  3  1  0  0  0  0
  1  4  1  0  0  0  0
  1  5  1  0  0  0  0
  5  6  1  0  0  0  0
  5  7  1  0  0  0  0
  5  8  1  0  0  0  0
  8  9  1  0  0  0  0
  8 10  1  0  0  0  0
  8 11  1  0  0  0  0
 11 12  1  0  0  0  0
 11 13  1  0  0  0  0
 11 14  1  0  0  0  0
 14 15  1  0  0  0  0
 14 16  1  0  0  0  0
 14 17  1  0  0  0  0
 17 18  1  0  0  0  0
 17 19  1  0  0  0  0
 17 20  1  0  0  0  0
M  END
> <VM2 Rank>
21

> <Conf_Id>
316

> <Probability>
0.14

> <Sum Probability>
99.73

> <Delta G>
2.926

> <G>
29.933

> <E>
7.129

> <-TS>
22.804

> <U+W>
-8.967

> <U>
49.216

> <W>
-58.183

> <W(PB)>
-60.064

> <W(SA)>
1.881

> <Valence>
2.929

> <Coulomb>
46.006

> <VdW>
0.281

> <VdW6>
-4.909

> <VdW12>
5.190

> <Bond>
0.156

> <Angle>
0.974

> <Pdih>
1.799

> <Idih>
0.000

> <Tether>
0.000

$$$$
VeraChem MOL file


 20 19  0  0  0  0  0  0  0  0999 V2000     
   20.8334   18.6161   24.6872 N   0  3  0  0  0  0  0  0  0  0  0  0
   20.1089   18.2859   25.3322 H   0  0  0  0  0  0  0  0  0  0  0  0
   21.0981   17.8223   24.0969 H   0  0  0  0  0  0  0  0  0  0  0  0
   21.6532   18.8527   25.2558 H   0  0  0  0  0  0  0  0  0  0  0  0
   20.3597   19.7979   23.8634 C   0  0  0  0  0  0  0  0  0  0  0  0
   21.1857   20.1155   23.2251 H   0  0  0  0  0  0  0  0  0  0  0  0
   20.1379   20.6137   24.5567 H   0  0  0  0  0  0  0  0  0  0  0  0
   19.1061   19.5024   23.0125 C   0  0  0  0  0  0  0  0  0  0  0  0
   18.3043   19.1779   23.6890 H   0  0  0  0  0  0  0  0  0  0  0  0
   18.7515   20.4339   22.5518 H   0  0  0  0  0  0  0  0  0  0  0  0
   19.3052   18.4221   21.9155 C   0  0  0  0  0  0  0  0  0  0  0  0
   18.3193   18.0001   21.6761 H   0  0  0  0  0  0  0  0  0  0  0  0
   19.8963   17.5818   22.3020 H   0  0  0  0  0  0  0  0  0  0  0  0
   19.9221   18.9381   20.5899 C   0  0  0  0  0  0  0  0  0  0  0  0
   19.9264   18.1103   19.8670 H   0  0  0  0  0  0  0  0  0  0  0  0
   19.2750   19.7139   20.1572 H   0  0  0  0  0  0  0  0  0  0  0  0
   21.3615   19.4833   20.7195 C   0  0  0  0  0  0  0  0  0  0  0  0
   21.3788   20.4441   21.2474 H   0  0  0  0  0  0  0  0  0  0  0  0
   22.0097   18.7759   21.2526 H   0  0  0  0  0  0  0  0  0  0  0  0
   21.7964   19.6530   19.7260 H   0  0  0  0  0  0  0  0  0  0  0  0
  1  2  1  0  0  0  0
  1  3  1  0  0  0  0
  1  4  1  0  0  0  0
  1  5  1  0  0  0  0
  5  6  1  0  0  0  0
  5  7  1  0  0  0  0
  5  8  1  0  0  0  0
  8  9  1  0  0  0  0
  8 10  1  0  0  0  0
  8 11  1  0  0  0  0
 11 12  1  0  0  0  0
 11 13  1  0  0  0  0
 11 14  1  0  0  0  0
 14 15  1  0  0  0  0
 14 16  1  0  0  0  0
 14 17  1  0  0  0  0
 17 18  1  0  0  0  0
 17 19  1  0  0  0  0
 17 20  1  0  0  0  0
M  END
> <VM2 Rank>
22

> <Conf_Id>
121

> <Probability>
0.08

> <Sum Probability>
99.82

> <Delta G>
3.223

> <G>
30.230

> <E>
7.239

> <-TS>
22.991

> <U+W>
-8.857

> <U>
49.434

> <W>
-58.292

> <W(PB)>
-60.170

> <W(SA)>
1.879

> <Valence>
3.798

> <Coulomb>
45.253

> <VdW>
0.384

> <VdW6>
-5.595

> <VdW12>
5.979

> <Bond>
0.198

> <Angle>
1.369

> <Pdih>
2.231

> <Idih>
0.000

> <Tether>
0.000

$$$$
VeraChem MOL file


 20 19  0  0  0  0  0  0  0  0999 V2000     
   20.1980   19.9841   24.6856 N   0  3  0  0  0  0  0  0  0  0  0  0
   19.7626   20.6972   24.0935 H   0  0  0  0  0  0  0  0  0  0  0  0
   19.4777   19.6448   25.3307 H   0  0  0  0  0  0  0  0  0  0  0  0
   20.9071   20.4591   25.2539 H   0  0  0  0  0  0  0  0  0  0  0  0
   20.7962   18.8582   23.8645 C   0  0  0  0  0  0  0  0  0  0  0  0
   21.2758   18.1638   24.5597 H   0  0  0  0  0  0  0  0  0  0  0  0
   21.5723   19.2832   23.2261 H   0  0  0  0  0  0  0  0  0  0  0  0
   19.7625   18.0892   23.0142 C   0  0  0  0  0  0  0  0  0  0  0  0
   20.2459   17.2165   22.5557 H   0  0  0  0  0  0  0  0  0  0  0  0
   18.9966   17.6873   23.6908 H   0  0  0  0  0  0  0  0  0  0  0  0
   19.0665   18.9362   21.9149 C   0  0  0  0  0  0  0  0  0  0  0  0
   18.8054   19.9306   22.2992 H   0  0  0  0  0  0  0  0  0  0  0  0
   18.1082   18.4546   21.6755 H   0  0  0  0  0  0  0  0  0  0  0  0
   19.8599   19.0719   20.5897 C   0  0  0  0  0  0  0  0  0  0  0  0
   20.0357   18.0762   20.1592 H   0  0  0  0  0  0  0  0  0  0  0  0
   19.2309   19.6079   19.8651 H   0  0  0  0  0  0  0  0  0  0  0  0
   21.2050   19.8203   20.7191 C   0  0  0  0  0  0  0  0  0  0  0  0
   21.9498   19.2148   21.2488 H   0  0  0  0  0  0  0  0  0  0  0  0
   21.6160   20.0412   19.7255 H   0  0  0  0  0  0  0  0  0  0  0  0
   21.0821   20.7730   21.2502 H   0  0  0  0  0  0  0  0  0  0  0  0
  1  2  1  0  0  0  0
  1  3  1  0  0  0  0
  1  4  1  0  0  0  0
  1  5  1  0  0  0  0
  5  6  1  0  0  0  0
  5  7  1  0  0  0  0
  5  8  1  0  0  0  0
  8  9  1  0  0  0  0
  8 10  1  0  0  0  0
  8 11  1  0  0  0  0
 11 12  1  0  0  0  0
 11 13  1  0  0  0  0
 11 14  1  0  0  0  0
 14 15  1  0  0  0  0
 14 16  1  0  0  0  0
 14 17  1  0  0  0  0
 17 18  1  0  0  0  0
 17 19  1  0  0  0  0
 17 20  1  0  0  0  0
M  END
> <VM2 Rank>
23

> <Conf_Id>
59

> <Probability>
0.08

> <Sum Probability>
99.89

> <Delta G>
3.252

> <G>
30.259

> <E>
7.267

> <-TS>
22.992

> <U+W>
-8.829

> <U>
49.434

> <W>
-58.263

> <W(PB)>
-60.125

> <W(SA)>
1.862

> <Valence>
3.798

> <Coulomb>
45.253

> <VdW>
0.384

> <VdW6>
-5.595

> <VdW12>
5.979

> <Bond>
0.198

> <Angle>
1.369

> <Pdih>
2.231

> <Idih>
0.000

> <Tether>
0.000

$$$$
VeraChem MOL file


 20 19  0  0  0  0  0  0  0  0999 V2000     
   21.1752   18.9006   24.3537 N   0  3  0  0  0  0  0  0  0  0  0  0
   21.8924   19.4270   24.8635 H   0  0  0  0  0  0  0  0  0  0  0  0
   20.8478   18.1583   24.9797 H   0  0  0  0  0  0  0  0  0  0  0  0
   21.6388   18.4472   23.5609 H   0  0  0  0  0  0  0  0  0  0  0  0
   20.0383   19.7935   23.8965 C   0  0  0  0  0  0  0  0  0  0  0  0
   20.4520   20.5825   23.2648 H   0  0  0  0  0  0  0  0  0  0  0  0
   19.6100   20.2665   24.7843 H   0  0  0  0  0  0  0  0  0  0  0  0
   18.9281   19.0436   23.1350 C   0  0  0  0  0  0  0  0  0  0  0  0
   18.4606   18.3236   23.8197 H   0  0  0  0  0  0  0  0  0  0  0  0
   18.1402   19.7602   22.8679 H   0  0  0  0  0  0  0  0  0  0  0  0
   19.3904   18.2922   21.8576 C   0  0  0  0  0  0  0  0  0  0  0  0
   18.5197   17.7458   21.4693 H   0  0  0  0  0  0  0  0  0  0  0  0
   20.1296   17.5197   22.1077 H   0  0  0  0  0  0  0  0  0  0  0  0
   19.9245   19.1995   20.7188 C   0  0  0  0  0  0  0  0  0  0  0  0
   19.7633   18.6807   19.7633 H   0  0  0  0  0  0  0  0  0  0  0  0
   19.3351   20.1252   20.6616 H   0  0  0  0  0  0  0  0  0  0  0  0
   21.4315   19.5306   20.8265 C   0  0  0  0  0  0  0  0  0  0  0  0
   22.0338   18.6155   20.8949 H   0  0  0  0  0  0  0  0  0  0  0  0
   21.7641   20.0789   19.9356 H   0  0  0  0  0  0  0  0  0  0  0  0
   21.6578   20.1582   21.6945 H   0  0  0  0  0  0  0  0  0  0  0  0
  1  2  1  0  0  0  0
  1  3  1  0  0  0  0
  1  4  1  0  0  0  0
  1  5  1  0  0  0  0
  5  6  1  0  0  0  0
  5  7  1  0  0  0  0
  5  8  1  0  0  0  0
  8  9  1  0  0  0  0
  8 10  1  0  0  0  0
  8 11  1  0  0  0  0
 11 12  1  0  0  0  0
 11 13  1  0  0  0  0
 11 14  1  0  0  0  0
 14 15  1  0  0  0  0
 14 16  1  0  0  0  0
 14 17  1  0  0  0  0
 17 18  1  0  0  0  0
 17 19  1  0  0  0  0
 17 20  1  0  0  0  0
M  END
> <VM2 Rank>
24

> <Conf_Id>
256

> <Probability>
0.04

> <Sum Probability>
99.93

> <Delta G>
3.673

> <G>
30.680

> <E>
7.491

> <-TS>
23.189

> <U+W>
-8.605

> <U>
49.667

> <W>
-58.273

> <W(PB)>
-60.123

> <W(SA)>
1.851

> <Valence>
3.949

> <Coulomb>
45.465

> <VdW>
0.254

> <VdW6>
-5.831

> <VdW12>
6.086

> <Bond>
0.203

> <Angle>
1.495

> <Pdih>
2.250

> <Idih>
0.000

> <Tether>
0.000

$$$$
VeraChem MOL file


 20 19  0  0  0  0  0  0  0  0999 V2000     
   20.6361   20.0611   24.3523 N   0  3  0  0  0  0  0  0  0  0  0  0
   20.5893   20.7063   23.5583 H   0  0  0  0  0  0  0  0  0  0  0  0
   19.8572   20.2910   24.9772 H   0  0  0  0  0  0  0  0  0  0  0  0
   21.5005   20.2706   24.8625 H   0  0  0  0  0  0  0  0  0  0  0  0
   20.5854   18.6155   23.8979 C   0  0  0  0  0  0  0  0  0  0  0  0
   20.6698   17.9848   24.7870 H   0  0  0  0  0  0  0  0  0  0  0  0
   21.4557   18.4215   23.2674 H   0  0  0  0  0  0  0  0  0  0  0  0
   19.2969   18.2495   23.1360 C   0  0  0  0  0  0  0  0  0  0  0  0
   19.3364   17.1847   22.8710 H   0  0  0  0  0  0  0  0  0  0  0  0
   18.4446   18.3581   23.8197 H   0  0  0  0  0  0  0  0  0  0  0  0
   19.0222   19.0848   21.8566 C   0  0  0  0  0  0  0  0  0  0  0  0
   18.9086   20.1485   22.1045 H   0  0  0  0  0  0  0  0  0  0  0  0
   18.0434   18.7713   21.4680 H   0  0  0  0  0  0  0  0  0  0  0  0
   20.0611   18.9054   20.7192 C   0  0  0  0  0  0  0  0  0  0  0  0
   20.3885   17.8577   20.6646 H   0  0  0  0  0  0  0  0  0  0  0  0
   19.5616   19.1148   19.7628 H   0  0  0  0  0  0  0  0  0  0  0  0
   21.2861   19.8437   20.8261 C   0  0  0  0  0  0  0  0  0  0  0  0
   21.9205   19.7422   19.9360 H   0  0  0  0  0  0  0  0  0  0  0  0
   20.9753   20.8943   20.8918 H   0  0  0  0  0  0  0  0  0  0  0  0
   21.9108   19.6136   21.6952 H   0  0  0  0  0  0  0  0  0  0  0  0
  1  2  1  0  0  0  0
  1  3  1  0  0  0  0
  1  4  1  0  0  0  0
  1  5  1  0  0  0  0
  5  6  1  0  0  0  0
  5  7  1  0  0  0  0
  5  8  1  0  0  0  0
  8  9  1  0  0  0  0
  8 10  1  0  0  0  0
  8 11  1  0  0  0  0
 11 12  1  0  0  0  0
 11 13  1  0  0  0  0
 11 14  1  0  0  0  0
 14 15  1  0  0  0  0
 14 16  1  0  0  0  0
 14 17  1  0  0  0  0
 17 18  1  0  0  0  0
 17 19  1  0  0  0  0
 17 20  1  0  0  0  0
M  END
> <VM2 Rank>
25

> <Conf_Id>
91

> <Probability>
0.03

> <Sum Probability>
99.96

> <Delta G>
3.803

> <G>
30.810

> <E>
7.621

> <-TS>
23.189

> <U+W>
-8.475

> <U>
49.667

> <W>
-58.142

> <W(PB)>
-59.997

> <W(SA)>
1.855

> <Valence>
3.949

> <Coulomb>
45.464

> <VdW>
0.254

> <VdW6>
-5.831

> <VdW12>
6.086

> <Bond>
0.203

> <Angle>
1.495

> <Pdih>
2.251

> <Idih>
0.000

> <Tether>
0.000

$$$$
VeraChem MOL file


 20 19  0  0  0  0  0  0  0  0999 V2000     
   18.8234   19.0121   24.0373 N   0  3  0  0  0  0  0  0  0  0  0  0
   18.3504   18.4842   24.7785 H   0  0  0  0  0  0  0  0  0  0  0  0
   18.4411   19.9625   24.0586 H   0  0  0  0  0  0  0  0  0  0  0  0
   18.5486   18.5953   23.1435 H   0  0  0  0  0  0  0  0  0  0  0  0
   20.3289   19.0090   24.2171 C   0  0  0  0  0  0  0  0  0  0  0  0
   20.6691   17.9720   24.2797 H   0  0  0  0  0  0  0  0  0  0  0  0
   20.5372   19.4916   25.1758 H   0  0  0  0  0  0  0  0  0  0  0  0
   21.1033   19.7449   23.1034 C   0  0  0  0  0  0  0  0  0  0  0  0
   20.6082   20.6933   22.8593 H   0  0  0  0  0  0  0  0  0  0  0  0
   22.0854   20.0209   23.5097 H   0  0  0  0  0  0  0  0  0  0  0  0
   21.3442   18.8995   21.8238 C   0  0  0  0  0  0  0  0  0  0  0  0
   21.9221   18.0049   22.0942 H   0  0  0  0  0  0  0  0  0  0  0  0
   21.9869   19.4741   21.1427 H   0  0  0  0  0  0  0  0  0  0  0  0
   20.0770   18.4562   21.0498 C   0  0  0  0  0  0  0  0  0  0  0  0
   20.3933   17.8678   20.1771 H   0  0  0  0  0  0  0  0  0  0  0  0
   19.4758   17.7719   21.6613 H   0  0  0  0  0  0  0  0  0  0  0  0
   19.2112   19.6383   20.5565 C   0  0  0  0  0  0  0  0  0  0  0  0
   19.7985   20.3160   19.9233 H   0  0  0  0  0  0  0  0  0  0  0  0
   18.3655   19.2732   19.9594 H   0  0  0  0  0  0  0  0  0  0  0  0
   18.8016   20.2222   21.3890 H   0  0  0  0  0  0  0  0  0  0  0  0
  1  2  1  0  0  0  0
  1  3  1  0  0  0  0
  1  4  1  0  0  0  0
  1  5  1  0  0  0  0
  5  6  1  0  0  0  0
  5  7  1  0  0  0  0
  5  8  1  0  0  0  0
  8  9  1  0  0  0  0
  8 10  1  0  0  0  0
  8 11  1  0  0  0  0
 11 12  1  0  0  0  0
 11 13  1  0  0  0  0
 11 14  1  0  0  0  0
 14 15  1  0  0  0  0
 14 16  1  0  0  0  0
 14 17  1  0  0  0  0
 17 18  1  0  0  0  0
 17 19  1  0  0  0  0
 17 20  1  0  0  0  0
M  END
> <VM2 Rank>
26

> <Conf_Id>
255

> <Probability>
0.02

> <Sum Probability>
99.98

> <Delta G>
4.122

> <G>
31.129

> <E>
7.726

> <-TS>
23.403

> <U+W>
-8.370

> <U>
49.568

> <W>
-57.938

> <W(PB)>
-59.794

> <W(SA)>
1.856

> <Valence>
3.368

> <Coulomb>
46.021

> <VdW>
0.179

> <VdW6>
-6.024

> <VdW12>
6.203

> <Bond>
0.196

> <Angle>
1.442

> <Pdih>
1.730

> <Idih>
0.000

> <Tether>
0.000

$$$$
VeraChem MOL file


 20 19  0  0  0  0  0  0  0  0999 V2000     
   19.2043   18.1918   24.0383 N   0  3  0  0  0  0  0  0  0  0  0  0
   18.7093   18.2490   23.1439 H   0  0  0  0  0  0  0  0  0  0  0  0
   19.6836   17.2865   24.0619 H   0  0  0  0  0  0  0  0  0  0  0  0
   18.4951   18.1726   24.7789 H   0  0  0  0  0  0  0  0  0  0  0  0
   20.1733   19.3442   24.2167 C   0  0  0  0  0  0  0  0  0  0  0  0
   20.6755   19.1939   25.1762 H   0  0  0  0  0  0  0  0  0  0  0  0
   19.6005   20.2735   24.2769 H   0  0  0  0  0  0  0  0  0  0  0  0
   21.2361   19.4588   23.1038 C   0  0  0  0  0  0  0  0  0  0  0  0
   22.0804   20.0316   23.5097 H   0  0  0  0  0  0  0  0  0  0  0  0
   21.6414   18.4680   22.8619 H   0  0  0  0  0  0  0  0  0  0  0  0
   20.7469   20.1858   21.8223 C   0  0  0  0  0  0  0  0  0  0  0  0
   21.6013   20.3047   21.1417 H   0  0  0  0  0  0  0  0  0  0  0  0
   20.4362   21.2051   22.0904 H   0  0  0  0  0  0  0  0  0  0  0  0
   19.5913   19.5023   21.0486 C   0  0  0  0  0  0  0  0  0  0  0  0
   18.6800   19.4857   21.6592 H   0  0  0  0  0  0  0  0  0  0  0  0
   19.3466   20.1219   20.1744 H   0  0  0  0  0  0  0  0  0  0  0  0
   19.9361   18.0771   20.5583 C   0  0  0  0  0  0  0  0  0  0  0  0
   20.8333   18.0872   19.9259 H   0  0  0  0  0  0  0  0  0  0  0  0
   20.1172   17.3890   21.3923 H   0  0  0  0  0  0  0  0  0  0  0  0
   19.1120   17.6655   19.9613 H   0  0  0  0  0  0  0  0  0  0  0  0
  1  2  1  0  0  0  0
  1  3  1  0  0  0  0
  1  4  1  0  0  0  0
  1  5  1  0  0  0  0
  5  6  1  0  0  0  0
  5  7  1  0  0  0  0
  5  8  1  0  0  0  0
  8  9  1  0  0  0  0
  8 10  1  0  0  0  0
  8 11  1  0  0  0  0
 11 12  1  0  0  0  0
 11 13  1  0  0  0  0
 11 14  1  0  0  0  0
 14 15  1  0  0  0  0
 14 16  1  0  0  0  0
 14 17  1  0  0  0  0
 17 18  1  0  0  0  0
 17 19  1  0  0  0  0
 17 20  1  0  0  0  0
M  END
> <VM2 Rank>
27

> <Conf_Id>
253

> <Probability>
0.02

> <Sum Probability>
100.00

> <Delta G>
4.190

> <G>
31.197

> <E>
7.794

> <-TS>
23.403

> <U+W>
-8.302

> <U>
49.568

> <W>
-57.870

> <W(PB)>
-59.720

> <W(SA)>
1.850

> <Valence>
3.368

> <Coulomb>
46.021

> <VdW>
0.179

> <VdW6>
-6.024

> <VdW12>
6.203

> <Bond>
0.196

> <Angle>
1.442

> <Pdih>
1.730

> <Idih>
0.000

> <Tether>
0.000

$$$$
VeraChem MOL file


 20 19  0  0  0  0  0  0  0  0999 V2000     
   20.3761   17.8730   24.0431 N   0  3  0  0  0  0  0  0  0  0  0  0
   20.3866   17.4941   23.0912 H   0  0  0  0  0  0  0  0  0  0  0  0
   21.1248   17.4069   24.5665 H   0  0  0  0  0  0  0  0  0  0  0  0
   19.4904   17.5901   24.4742 H   0  0  0  0  0  0  0  0  0  0  0  0
   20.5442   19.3801   24.0402 C   0  0  0  0  0  0  0  0  0  0  0  0
   21.5288   19.6224   23.6315 H   0  0  0  0  0  0  0  0  0  0  0  0
   20.5205   19.7061   25.0836 H   0  0  0  0  0  0  0  0  0  0  0  0
   19.4509   20.1310   23.2533 C   0  0  0  0  0  0  0  0  0  0  0  0
   18.4688   19.6888   23.4671 H   0  0  0  0  0  0  0  0  0  0  0  0
   19.4065   21.1575   23.6408 H   0  0  0  0  0  0  0  0  0  0  0  0
   19.6785   20.2135   21.7199 C   0  0  0  0  0  0  0  0  0  0  0  0
   20.5978   20.7767   21.5075 H   0  0  0  0  0  0  0  0  0  0  0  0
   18.8618   20.8163   21.2990 H   0  0  0  0  0  0  0  0  0  0  0  0
   19.7037   18.8540   20.9759 C   0  0  0  0  0  0  0  0  0  0  0  0
   19.0786   18.1179   21.4989 H   0  0  0  0  0  0  0  0  0  0  0  0
   19.2396   18.9869   19.9884 H   0  0  0  0  0  0  0  0  0  0  0  0
   21.1346   18.3083   20.7556 C   0  0  0  0  0  0  0  0  0  0  0  0
   21.1028   17.3210   20.2767 H   0  0  0  0  0  0  0  0  0  0  0  0
   21.7053   18.9763   20.0972 H   0  0  0  0  0  0  0  0  0  0  0  0
   21.6958   18.2127   21.6913 H   0  0  0  0  0  0  0  0  0  0  0  0
  1  2  1  0  0  0  0
  1  3  1  0  0  0  0
  1  4  1  0  0  0  0
  1  5  1  0  0  0  0
  5  6  1  0  0  0  0
  5  7  1  0  0  0  0
  5  8  1  0  0  0  0
  8  9  1  0  0  0  0
  8 10  1  0  0  0  0
  8 11  1  0  0  0  0
 11 12  1  0  0  0  0
 11 13  1  0  0  0  0
 11 14  1  0  0  0  0
 14 15  1  0  0  0  0
 14 16  1  0  0  0  0
 14 17  1  0  0  0  0
 17 18  1  0  0  0  0
 17 19  1  0  0  0  0
 17 20  1  0  0  0  0
M  END
> <VM2 Rank>
28

> <Conf_Id>
79

> <Probability>
0.00

> <Sum Probability>
100.00

> <Delta G>
6.053

> <G>
33.060

> <E>
9.672

> <-TS>
23.388

> <U+W>
-6.425

> <U>
51.541

> <W>
-57.966

> <W(PB)>
-59.821

> <W(SA)>
1.855

> <Valence>
5.347

> <Coulomb>
45.870

> <VdW>
0.324

> <VdW6>
-6.161

> <VdW12>
6.485

> <Bond>
0.201

> <Angle>
1.484

> <Pdih>
3.662

> <Idih>
0.000

> <Tether>
0.000

$$$$
VeraChem MOL file


 20 19  0  0  0  0  0  0  0  0999 V2000     
   19.3357   20.1128   24.0404 N   0  3  0  0  0  0  0  0  0  0  0  0
   19.4620   20.9865   24.5622 H   0  0  0  0  0  0  0  0  0  0  0  0
   19.0539   20.3634   23.0878 H   0  0  0  0  0  0  0  0  0  0  0  0
   18.5478   19.6193   24.4717 H   0  0  0  0  0  0  0  0  0  0  0  0
   20.5957   19.2691   24.0404 C   0  0  0  0  0  0  0  0  0  0  0  0
   20.8286   19.0427   25.0844 H   0  0  0  0  0  0  0  0  0  0  0  0
   21.4164   19.8643   23.6312 H   0  0  0  0  0  0  0  0  0  0  0  0
   20.4651   17.9477   23.2559 C   0  0  0  0  0  0  0  0  0  0  0  0
   21.2205   17.2524   23.6455 H   0  0  0  0  0  0  0  0  0  0  0  0
   19.4935   17.4829   23.4698 H   0  0  0  0  0  0  0  0  0  0  0  0
   20.6763   18.0653   21.7225 C   0  0  0  0  0  0  0  0  0  0  0  0
   20.6105   17.0516   21.3035 H   0  0  0  0  0  0  0  0  0  0  0  0
   21.6999   18.4041   21.5104 H   0  0  0  0  0  0  0  0  0  0  0  0
   19.6544   18.9601   20.9758 C   0  0  0  0  0  0  0  0  0  0  0  0
   19.4574   18.5177   19.9890 H   0  0  0  0  0  0  0  0  0  0  0  0
   18.6882   18.9583   21.4979 H   0  0  0  0  0  0  0  0  0  0  0  0
   20.1607   20.4051   20.7531 C   0  0  0  0  0  0  0  0  0  0  0  0
   20.4488   20.8974   21.6881 H   0  0  0  0  0  0  0  0  0  0  0  0
   21.0398   20.4089   20.0954 H   0  0  0  0  0  0  0  0  0  0  0  0
   19.3862   21.0167   20.2723 H   0  0  0  0  0  0  0  0  0  0  0  0
  1  2  1  0  0  0  0
  1  3  1  0  0  0  0
  1  4  1  0  0  0  0
  1  5  1  0  0  0  0
  5  6  1  0  0  0  0
  5  7  1  0  0  0  0
  5  8  1  0  0  0  0
  8  9  1  0  0  0  0
  8 10  1  0  0  0  0
  8 11  1  0  0  0  0
 11 12  1  0  0  0  0
 11 13  1  0  0  0  0
 11 14  1  0  0  0  0
 14 15  1  0  0  0  0
 14 16  1  0  0  0  0
 14 17  1  0  0  0  0
 17 18  1  0  0  0  0
 17 19  1  0  0  0  0
 17 20  1  0  0  0  0
M  END
> <VM2 Rank>
29

> <Conf_Id>
50

> <Probability>
0.00

> <Sum Probability>
100.00

> <Delta G>
6.065

> <G>
33.073

> <E>
9.684

> <-TS>
23.388

> <U+W>
-6.412

> <U>
51.542

> <W>
-57.954

> <W(PB)>
-59.811

> <W(SA)>
1.857

> <Valence>
5.347

> <Coulomb>
45.870

> <VdW>
0.325

> <VdW6>
-6.161

> <VdW12>
6.486

> <Bond>
0.201

> <Angle>
1.484

> <Pdih>
3.662

> <Idih>
0.000

> <Tether>
0.000

$$$$
