@<TRIPOS>MOLECULE
MOL
   20    19     1     0     0
SMALL
gas


@<TRIPOS>ATOM
      1 N1          19.7470    18.9440    25.6460 n4         1 MOL       0.231584
      2 H1          18.8440    19.4420    25.7070 hn         1 MOL       0.196017
      3 H2          19.5460    17.9330    25.7090 hn         1 MOL       0.196017
      4 H3          20.2910    19.1980    26.4870 hn         1 MOL       0.196017
      5 C1          20.4920    19.2890    24.3760 c3         1 MOL      -0.038086
      6 H4          21.4450    18.7540    24.4000 hx         1 MOL       0.081283
      7 H5          20.6960    20.3620    24.3990 hx         1 MOL       0.081283
      8 C2          19.7230    18.9300    23.0900 c3         1 MOL      -0.013855
      9 H6          19.5110    17.8570    23.0790 hc         1 MOL       0.032058
     10 H7          18.7660    19.4580    23.0770 hc         1 MOL       0.032058
     11 C3          20.5420    19.3090    21.8400 c3         1 MOL      -0.048607
     12 H8          21.5000    18.7820    21.8560 hc         1 MOL       0.026857
     13 H9          20.7550    20.3810    21.8540 hc         1 MOL       0.026857
     14 C4          19.7830    18.9550    20.5420 c3         1 MOL      -0.055964
     15 H10         19.5700    17.8820    20.5220 hc         1 MOL       0.026376
     16 H11         18.8270    19.4820    20.5200 hc         1 MOL       0.026376
     17 C5          20.6010    19.3330    19.2940 c3         1 MOL      -0.065380
     18 H12         21.5520    18.7980    19.2790 hc         1 MOL       0.023036
     19 H13         20.0480    19.0750    18.3880 hc         1 MOL       0.023036
     20 H14         20.8050    20.4060    19.2770 hc         1 MOL       0.023036
@<TRIPOS>BOND
     1     1     2 1   
     2     1     3 1   
     3     1     4 1   
     4     1     5 1   
     5     5     6 1   
     6     5     7 1   
     7     5     8 1   
     8     8     9 1   
     9     8    10 1   
    10     8    11 1   
    11    11    12 1   
    12    11    13 1   
    13    11    14 1   
    14    14    15 1   
    15    14    16 1   
    16    14    17 1   
    17    17    18 1   
    18    17    19 1   
    19    17    20 1   
@<TRIPOS>SUBSTRUCTURE
     1 MOL         1 TEMP              0 ****  ****    0 ROOT
