@<TRIPOS>MOLECULE
MOL
   29    28     1     0     0
SMALL
gas


@<TRIPOS>ATOM
      1 C1          20.2510    19.3660    18.7380 c3         1 MOL      -0.065384
      2 H1          20.6440    20.3850    18.7250 hc         1 MOL       0.023036
      3 H2          21.0910    18.6680    18.7420 hc         1 MOL       0.023036
      4 H3          19.6790    19.2090    17.8200 hc         1 MOL       0.023036
      5 C2          19.3540    19.1440    19.9680 c3         1 MOL      -0.056175
      6 H4          18.9510    18.1280    19.9420 hc         1 MOL       0.026372
      7 H5          18.5070    19.8350    19.9270 hc         1 MOL       0.026372
      8 C3          20.1370    19.3590    21.2800 c3         1 MOL      -0.053568
      9 H6          20.9830    18.6690    21.3160 hc         1 MOL       0.026645
     10 H7          20.5380    20.3750    21.3010 hc         1 MOL       0.026645
     11 C4          19.2360    19.1360    22.5140 c3         1 MOL      -0.053097
     12 H8          18.8340    18.1200    22.4910 hc         1 MOL       0.026658
     13 H9          18.3900    19.8280    22.4770 hc         1 MOL       0.026658
     14 C5          20.0200    19.3500    23.8250 c3         1 MOL      -0.048062
     15 H10         20.8650    18.6570    23.8620 hc         1 MOL       0.026879
     16 H11         20.4250    20.3650    23.8390 hc         1 MOL       0.026879
     17 C6          19.1170    19.1260    25.0600 c3         1 MOL      -0.011249
     18 H12         18.6860    18.1240    24.9970 hc         1 MOL       0.032364
     19 H13         18.2870    19.8380    25.0440 hc         1 MOL       0.032364
     20 C7          19.8980    19.2580    26.3870 c3         1 MOL      -0.030025
     21 H14         20.2900    20.2770    26.4640 hx         1 MOL       0.084724
     22 C8          21.0790    18.2730    26.3780 c3         1 MOL      -0.022765
     23 H15         20.7320    17.2380    26.3020 hc         1 MOL       0.028737
     24 H16         21.7400    18.4730    25.5320 hc         1 MOL       0.028737
     25 H17         21.6720    18.3710    27.2900 hc         1 MOL       0.028737
     26 N1          19.0440    19.0440    27.6040 n4         1 MOL       0.233557
     27 H18         18.2730    19.7280    27.6560 hn         1 MOL       0.196297
     28 H19         19.5960    19.1420    28.4710 hn         1 MOL       0.196297
     29 H20         18.6240    18.1020    27.6100 hn         1 MOL       0.196297
@<TRIPOS>BOND
     1     1     2 1   
     2     1     3 1   
     3     1     4 1   
     4     1     5 1   
     5     5     6 1   
     6     5     7 1   
     7     5     8 1   
     8     8     9 1   
     9     8    10 1   
    10     8    11 1   
    11    11    12 1   
    12    11    13 1   
    13    11    14 1   
    14    14    15 1   
    15    14    16 1   
    16    14    17 1   
    17    17    18 1   
    18    17    19 1   
    19    17    20 1   
    20    20    21 1   
    21    20    22 1   
    22    20    26 1   
    23    22    23 1   
    24    22    24 1   
    25    22    25 1   
    26    26    27 1   
    27    26    28 1   
    28    26    29 1   
@<TRIPOS>SUBSTRUCTURE
     1 MOL         1 TEMP              0 ****  ****    0 ROOT
