@<TRIPOS>MOLECULE
MOL
   20    19     1     0     0
SMALL
gas


@<TRIPOS>ATOM
      1 N1          20.2980    20.2390    24.2320 n4         1 MOL       0.233557
      2 H1          19.6620    21.0430    24.1230 hn         1 MOL       0.196297
      3 H2          21.0840    20.3740    23.5790 hn         1 MOL       0.196297
      4 H3          20.6840    20.2840    25.1880 hn         1 MOL       0.196297
      5 C1          19.5900    18.9370    23.9860 c3         1 MOL      -0.030035
      6 H4          18.8030    18.8880    24.7450 hx         1 MOL       0.084724
      7 C2          20.5210    17.7290    24.1880 c3         1 MOL      -0.022765
      8 H5          21.3930    17.7730    23.5320 hc         1 MOL       0.028737
      9 H6          19.9890    16.7960    23.9910 hc         1 MOL       0.028737
     10 H7          20.8810    17.6930    25.2190 hc         1 MOL       0.028737
     11 C3          18.9100    18.8820    22.5980 c3         1 MOL      -0.011512
     12 H8          18.3350    17.9550    22.5250 hc         1 MOL       0.032353
     13 H9          18.1820    19.6970    22.5310 hc         1 MOL       0.032353
     14 C4          19.8800    18.9700    21.3930 c3         1 MOL      -0.050927
     15 H10         20.5740    18.1270    21.3990 hc         1 MOL       0.026596
     16 H11         20.4720    19.8880    21.4470 hc         1 MOL       0.026596
     17 C5          19.1060    18.9570    20.0640 c3         1 MOL      -0.065161
     18 H12         18.5250    18.0380    19.9650 hc         1 MOL       0.023040
     19 H13         19.7990    19.0160    19.2220 hc         1 MOL       0.023040
     20 H14         18.4240    19.8090    20.0050 hc         1 MOL       0.023040
@<TRIPOS>BOND
     1     1     2 1   
     2     1     3 1   
     3     1     4 1   
     4     1     5 1   
     5     5     6 1   
     6     5     7 1   
     7     5    11 1   
     8     7     8 1   
     9     7     9 1   
    10     7    10 1   
    11    11    12 1   
    12    11    13 1   
    13    11    14 1   
    14    14    15 1   
    15    14    16 1   
    16    14    17 1   
    17    17    18 1   
    18    17    19 1   
    19    17    20 1   
@<TRIPOS>SUBSTRUCTURE
     1 MOL         1 TEMP              0 ****  ****    0 ROOT
