@<TRIPOS>MOLECULE
MOL
   25    24     1     0     0
SMALL
gas


@<TRIPOS>ATOM
      1 C1          20.1280    19.3370    27.8030 c          1 MOL       0.041389
      2 O1          21.0050    20.1840    27.8560 o          1 MOL      -0.550166
      3 O2          19.6430    18.8930    28.8290 o          1 MOL      -0.550166
      4 C2          19.6120    18.8080    26.4630 c3         1 MOL      -0.013139
      5 H1          18.5340    18.9890    26.3940 hc         1 MOL       0.032842
      6 H2          19.7550    17.7220    26.4240 hc         1 MOL       0.032842
      7 C3          20.3020    19.4450    25.2350 c3         1 MOL      -0.048058
      8 H3          20.1510    20.5280    25.2480 hc         1 MOL       0.027030
      9 H4          21.3790    19.2560    25.2770 hc         1 MOL       0.027030
     10 C4          19.7390    18.8700    23.9180 c3         1 MOL      -0.052944
     11 H5          18.6620    19.0570    23.8690 hc         1 MOL       0.026663
     12 H6          19.8870    17.7870    23.8980 hc         1 MOL       0.026663
     13 C5          20.4250    19.5060    22.6900 c3         1 MOL      -0.053300
     14 H7          20.2770    20.5880    22.7080 hc         1 MOL       0.026651
     15 H8          21.5010    19.3180    22.7370 hc         1 MOL       0.026651
     16 C6          19.8620    18.9310    21.3730 c3         1 MOL      -0.053564
     17 H9          18.7850    19.1170    21.3260 hc         1 MOL       0.026641
     18 H10         20.0100    17.8480    21.3550 hc         1 MOL       0.026641
     19 C7          20.5490    19.5660    20.1470 c3         1 MOL      -0.056168
     20 H11         20.4000    20.6480    20.1590 hc         1 MOL       0.026369
     21 H12         21.6240    19.3780    20.1890 hc         1 MOL       0.026369
     22 C8          19.9880    18.9940    18.8320 c3         1 MOL      -0.065381
     23 H13         18.9160    19.1900    18.7520 hc         1 MOL       0.023034
     24 H14         20.4860    19.4540    17.9760 hc         1 MOL       0.023034
     25 H15         20.1480    17.9140    18.7810 hc         1 MOL       0.023034
@<TRIPOS>BOND
     1     1     2 1   
     2     1     3 1   
     3     1     4 1   
     4     4     5 1   
     5     4     6 1   
     6     4     7 1   
     7     7     8 1   
     8     7     9 1   
     9     7    10 1   
    10    10    11 1   
    11    10    12 1   
    12    10    13 1   
    13    13    14 1   
    14    13    15 1   
    15    13    16 1   
    16    16    17 1   
    17    16    18 1   
    18    16    19 1   
    19    19    20 1   
    20    19    21 1   
    21    19    22 1   
    22    22    23 1   
    23    22    24 1   
    24    22    25 1   
@<TRIPOS>SUBSTRUCTURE
     1 MOL         1 TEMP              0 ****  ****    0 ROOT
