@<TRIPOS>MOLECULE
MOL
   17    16     1     0     0
SMALL
gas


@<TRIPOS>ATOM
      1 N1          19.6330    18.8470    24.1380 n4         1 MOL       0.231584
      2 H1          19.6610    17.8160    24.1890 hn         1 MOL       0.196017
      3 H2          18.6400    19.1270    24.1700 hn         1 MOL       0.196017
      4 H3          20.0780    19.2050    24.9980 hn         1 MOL       0.196017
      5 C1          20.3230    19.3660    22.8950 c3         1 MOL      -0.038096
      6 H4          21.3710    19.0570    22.9510 hx         1 MOL       0.081283
      7 H5          20.2800    20.4580    22.9300 hx         1 MOL       0.081283
      8 C2          19.6960    18.8570    21.5830 c3         1 MOL      -0.014107
      9 H6          19.7300    17.7650    21.5600 hc         1 MOL       0.032048
     10 H7          18.6450    19.1580    21.5390 hc         1 MOL       0.032048
     11 C3          20.4470    19.4250    20.3620 c3         1 MOL      -0.051209
     12 H8          21.4980    19.1260    20.4030 hc         1 MOL       0.026584
     13 H9          20.4140    20.5170    20.3820 hc         1 MOL       0.026584
     14 C4          19.8300    18.9250    19.0420 c3         1 MOL      -0.065173
     15 H10         19.8750    17.8340    18.9840 hc         1 MOL       0.023040
     16 H11         20.3740    19.3360    18.1900 hc         1 MOL       0.023040
     17 H12         18.7840    19.2340    18.9640 hc         1 MOL       0.023040
@<TRIPOS>BOND
     1     1     2 1   
     2     1     3 1   
     3     1     4 1   
     4     1     5 1   
     5     5     6 1   
     6     5     7 1   
     7     5     8 1   
     8     8     9 1   
     9     8    10 1   
    10     8    11 1   
    11    11    12 1   
    12    11    13 1   
    13    11    14 1   
    14    14    15 1   
    15    14    16 1   
    16    14    17 1   
@<TRIPOS>SUBSTRUCTURE
     1 MOL         1 TEMP              0 ****  ****    0 ROOT
