@<TRIPOS>MOLECULE
MOL
   16    16     1     0     0
SMALL
gas


@<TRIPOS>ATOM
      1 C1          19.7090    18.9910    20.9340 c3         1 MOL      -0.050753
      2 H1          19.6980    19.8820    20.3010 hc         1 MOL       0.026750
      3 H2          20.1540    18.1650    20.3720 hc         1 MOL       0.026750
      4 C2          18.3040    18.5960    21.4030 c3         1 MOL      -0.050753
      5 H3          17.7380    19.4960    21.6610 hc         1 MOL       0.026750
      6 H4          17.7550    18.0430    20.6380 hc         1 MOL       0.026750
      7 C3          18.5430    17.7550    22.6650 c3         1 MOL      -0.027007
      8 H5          18.6550    16.7050    22.3870 hc         1 MOL       0.029297
      9 H6          17.7060    17.8360    23.3630 hc         1 MOL       0.029297
     10 C4          19.8720    18.2550    23.2720 c3         1 MOL       0.053985
     11 H7          20.5360    17.4030    23.4480 h1         1 MOL       0.060034
     12 C5          20.4950    19.2140    22.2360 c3         1 MOL      -0.027007
     13 H8          20.3770    20.2530    22.5530 hc         1 MOL       0.029297
     14 H9          21.5590    19.0130    22.0940 hc         1 MOL       0.029297
     15 O1          19.6260    18.9440    24.5040 oh         1 MOL      -0.393131
     16 H10         20.5210    19.1640    24.8930 ho         1 MOL       0.210445
@<TRIPOS>BOND
     1     1     2 1   
     2     1     3 1   
     3     1     4 1   
     4     1    12 1   
     5     4     5 1   
     6     4     6 1   
     7     4     7 1   
     8     7     8 1   
     9     7     9 1   
    10     7    10 1   
    11    10    11 1   
    12    10    12 1   
    13    10    15 1   
    14    12    13 1   
    15    12    14 1   
    16    15    16 1   
@<TRIPOS>SUBSTRUCTURE
     1 MOL         1 TEMP              0 ****  ****    0 ROOT
