@<TRIPOS>MOLECULE
MOL
   25    25     1     0     0
SMALL
gas


@<TRIPOS>ATOM
      1 C1          19.7090    18.9910    20.9340 c3         1 MOL      -0.053303
      2 H1          18.8780    18.6770    21.5680 hc         1 MOL       0.026653
      3 H2          19.3500    18.8590    19.9110 hc         1 MOL       0.026653
      4 C2          20.9190    18.0450    21.1140 c3         1 MOL      -0.053211
      5 H3          20.5900    17.0400    20.8400 hc         1 MOL       0.026655
      6 H4          21.7010    18.3160    20.3980 hc         1 MOL       0.026655
      7 C3          21.5460    17.9640    22.5280 c3         1 MOL      -0.050848
      8 H5          22.2490    18.7830    22.6860 hc         1 MOL       0.026748
      9 H6          22.1550    17.0590    22.5540 hc         1 MOL       0.026748
     10 C4          20.5260    17.8860    23.6930 c3         1 MOL      -0.027009
     11 H7          19.5650    17.4940    23.3540 hc         1 MOL       0.029297
     12 H8          20.9120    17.1500    24.4030 hc         1 MOL       0.029297
     13 C5          20.3410    19.2180    24.4690 c3         1 MOL       0.053985
     14 H9          21.3290    19.5850    24.7670 h1         1 MOL       0.060034
     15 C6          19.6030    20.3480    23.7010 c3         1 MOL      -0.027009
     16 H10         18.6220    20.0130    23.3610 hc         1 MOL       0.029297
     17 H11         19.4110    21.1560    24.4130 hc         1 MOL       0.029297
     18 C7          20.4220    20.9640    22.5370 c3         1 MOL      -0.050848
     19 H12         21.4890    20.8080    22.6920 hc         1 MOL       0.026748
     20 H13         20.2890    22.0480    22.5670 hc         1 MOL       0.026748
     21 C8          19.9990    20.4990    21.1210 c3         1 MOL      -0.053211
     22 H14         20.7640    20.8100    20.4050 hc         1 MOL       0.026655
     23 H15         19.0890    21.0410    20.8530 hc         1 MOL       0.026655
     24 O1          19.5990    18.9280    25.6630 oh         1 MOL      -0.393131
     25 H16         19.6300    19.7410    26.2470 ho         1 MOL       0.210445
@<TRIPOS>BOND
     1     1     2 1   
     2     1     3 1   
     3     1     4 1   
     4     1    21 1   
     5     4     5 1   
     6     4     6 1   
     7     4     7 1   
     8     7     8 1   
     9     7     9 1   
    10     7    10 1   
    11    10    11 1   
    12    10    12 1   
    13    10    13 1   
    14    13    14 1   
    15    13    15 1   
    16    13    24 1   
    17    15    16 1   
    18    15    17 1   
    19    15    18 1   
    20    18    19 1   
    21    18    20 1   
    22    18    21 1   
    23    21    22 1   
    24    21    23 1   
    25    24    25 1   
@<TRIPOS>SUBSTRUCTURE
     1 MOL         1 TEMP              0 ****  ****    0 ROOT
