@<TRIPOS>MOLECULE
MOL
   22    22     1     0     0
SMALL
gas


@<TRIPOS>ATOM
      1 C1          19.7090    18.9910    20.9340 c3         1 MOL      -0.053210
      2 H1          20.4400    18.7590    20.1560 hc         1 MOL       0.026655
      3 H2          18.7280    18.7520    20.5170 hc         1 MOL       0.026655
      4 C2          19.7750    20.5080    21.2160 c3         1 MOL      -0.053210
      5 H3          20.8120    20.8500    21.1470 hc         1 MOL       0.026655
      6 H4          19.2360    21.0200    20.4150 hc         1 MOL       0.026655
      7 C3          19.1760    20.9400    22.5730 c3         1 MOL      -0.050848
      8 H5          18.2960    20.3460    22.8220 hc         1 MOL       0.026748
      9 H6          18.8340    21.9730    22.4710 hc         1 MOL       0.026748
     10 C4          20.2220    20.9110    23.7130 c3         1 MOL      -0.027009
     11 H7          21.1120    21.4570    23.3930 hc         1 MOL       0.029297
     12 H8          19.8210    21.4710    24.5640 hc         1 MOL       0.029297
     13 C5          20.6510    19.5100    24.2070 c3         1 MOL       0.053985
     14 H9          21.5220    19.6610    24.8530 h1         1 MOL       0.060034
     15 C6          21.0870    18.5190    23.0950 c3         1 MOL      -0.027009
     16 H10         21.9100    18.9460    22.5160 hc         1 MOL       0.029297
     17 H11         21.4910    17.6310    23.5860 hc         1 MOL       0.029297
     18 C7          19.9520    18.0620    22.1450 c3         1 MOL      -0.050848
     19 H12         20.2090    17.0740    21.7540 hc         1 MOL       0.026748
     20 H13         19.0200    17.9300    22.6970 hc         1 MOL       0.026748
     21 O1          19.6140    18.9370    25.0240 oh         1 MOL      -0.393131
     22 H14         18.7850    18.8820    24.4730 ho         1 MOL       0.210445
@<TRIPOS>BOND
     1     1     2 1   
     2     1     3 1   
     3     1     4 1   
     4     1    18 1   
     5     4     5 1   
     6     4     6 1   
     7     4     7 1   
     8     7     8 1   
     9     7     9 1   
    10     7    10 1   
    11    10    11 1   
    12    10    12 1   
    13    10    13 1   
    14    13    14 1   
    15    13    15 1   
    16    13    21 1   
    17    15    16 1   
    18    15    17 1   
    19    15    18 1   
    20    18    19 1   
    21    18    20 1   
    22    21    22 1   
@<TRIPOS>SUBSTRUCTURE
     1 MOL         1 TEMP              0 ****  ****    0 ROOT
