@<TRIPOS>MOLECULE
CD_guest-s20_fast_vm2_single.mol2 : feprocess host+ligand conformer 1
         143         148           2
SMALL
USER_CHARGES
 
@<TRIPOS>ATOM
       1    C1      16.114854   15.151814   21.640488 C.3        1 MOL1         0.2972
       2    H1      15.030583   15.009340   21.735217 H          1 MOL1         0.0751
       3    O1      16.465340   16.545083   21.552597 O.3        1 MOL1        -0.3740
       4    C2      16.832886   14.549197   22.871285 C.3        1 MOL1         0.1003
       5    H2      16.620519   13.472182   22.882458 H          1 MOL1         0.0783
       6    O2      16.342221   15.140711   24.085201 O.3        1 MOL1        -0.5519
       7    H3      15.917596   15.999158   23.836846 H          1 MOL1         0.3769
       8    C3      18.363432   14.732727   22.757376 C.3        1 MOL1         0.1053
       9    H4      18.589755   15.804803   22.843250 H          1 MOL1         0.0783
      10    O3      19.003604   14.017866   23.820002 O.3        1 MOL1        -0.5519
      11    H5      18.516413   14.284270   24.631357 H          1 MOL1         0.3769
      12    C4      18.894156   14.228723   21.392374 C.3        1 MOL1         0.1018
      13    H6      18.942676   13.132016   21.421581 H          1 MOL1         0.0783
      14    C5      18.028013   14.697608   20.186534 C.3        1 MOL1         0.1043
      15    H7      18.214048   15.768197   20.040861 H          1 MOL1         0.0783
      16    O4      16.616270   14.497662   20.457180 O.3        1 MOL1        -0.3740
      17    C6      18.376047   13.992599   18.853998 C.3        1 MOL1         0.0138
      18    H8      19.354438   14.356189   18.511665 H          1 MOL1         0.0794
      19    H9      17.636862   14.288362   18.097360 H          1 MOL1         0.0794
      20    O5      18.406896   12.566555   18.990729 O.3        1 MOL1        -0.5486
      21    H10     18.556033   12.184614   18.098438 H          1 MOL1         0.3769
      22    C7      14.755147   20.286042   20.979824 C.3        1 MOL1         0.2972
      23    H11     14.084265   21.119722   20.736318 H          1 MOL1         0.0751
      24    O6      16.055921   20.747052   21.393657 O.3        1 MOL1        -0.3740
      25    C8      14.167038   19.462696   22.151787 C.3        1 MOL1         0.1003
      26    H12     13.194606   19.069311   21.828128 H          1 MOL1         0.0783
      27    O7      13.982665   20.293668   23.309259 O.3        1 MOL1        -0.5519
      28    H13     14.681770   20.994009   23.277103 H          1 MOL1         0.3769
      29    C9      15.084070   18.263167   22.486332 C.3        1 MOL1         0.1053
      30    H14     16.032189   18.653040   22.882075 H          1 MOL1         0.0783
      31    O8      14.453515   17.436368   23.469752 O.3        1 MOL1        -0.5519
      32    H15     14.101433   18.064063   24.140300 H          1 MOL1         0.3769
      33    C10     15.392177   17.438015   21.214024 C.3        1 MOL1         0.1018
      34    H16     14.482795   16.900324   20.914834 H          1 MOL1         0.0783
      35    C11     15.867960   18.327085   20.031378 C.3        1 MOL1         0.1043
      36    H17     16.845188   18.747341   20.289868 H          1 MOL1         0.0783
      37    O9      14.924146   19.412145   19.839780 O.3        1 MOL1        -0.3740
      38    C12     16.057358   17.571244   18.690138 C.3        1 MOL1         0.0138
      39    H18     17.091293   17.207134   18.641620 H          1 MOL1         0.0794
      40    H19     15.934507   18.284670   17.864494 H          1 MOL1         0.0794
      41    O10     15.156976   16.468865   18.526909 O.3        1 MOL1        -0.5486
      42    H20     15.479640   15.742652   19.109089 H          1 MOL1         0.3769
      43    C13     18.518671   24.119442   21.148272 C.3        1 MOL1         0.2972
      44    H21     18.897141   25.127869   20.938617 H          1 MOL1         0.0751
      45    O11     19.535857   23.281042   21.725371 O.3        1 MOL1        -0.3740
      46    C14     17.358369   24.196567   22.172737 C.3        1 MOL1         0.1003
      47    H22     16.581288   24.844991   21.747625 H          1 MOL1         0.0783
      48    O12     17.827090   24.759106   23.409053 O.3        1 MOL1        -0.5519
      49    H23     18.746885   24.419707   23.542851 H          1 MOL1         0.3769
      50    C15     16.737882   22.799458   22.418326 C.3        1 MOL1         0.1053
      51    H24     17.483237   22.177644   22.934067 H          1 MOL1         0.0783
      52    O13     15.566161   22.929546   23.230972 O.3        1 MOL1        -0.5519
      53    H25     15.830045   23.527188   23.965757 H          1 MOL1         0.3769
      54    C16     16.379477   22.112315   21.079613 C.3        1 MOL1         0.1018
      55    H26     15.534789   22.646151   20.624555 H          1 MOL1         0.0783
      56    C17     17.584158   22.121315   20.102189 C.3        1 MOL1         0.1043
      57    H27     18.386201   21.522138   20.550761 H          1 MOL1         0.0783
      58    O14     18.038261   23.488856   19.939778 O.3        1 MOL1        -0.3740
      59    C18     17.296204   21.517814   18.704228 C.3        1 MOL1         0.0138
      60    H28     17.444788   20.432451   18.761435 H          1 MOL1         0.0794
      61    H29     18.038929   21.903362   17.993588 H          1 MOL1         0.0794
      62    O15     15.973263   21.793631   18.231728 O.3        1 MOL1        -0.5486
      63    H30     15.386906   21.102929   18.616299 H          1 MOL1         0.3769
      64    C19     23.710207   22.861657   21.746339 C.3        1 MOL1         0.2972
      65    H31     24.784870   23.067730   21.663925 H          1 MOL1         0.0751
      66    O16     23.464131   21.486096   22.081098 O.3        1 MOL1        -0.3740
      67    C20     23.094960   23.720609   22.879548 C.3        1 MOL1         0.1003
      68    H32     23.292060   24.774203   22.643016 H          1 MOL1         0.0783
      69    O17     23.709385   23.389196   24.134969 O.3        1 MOL1        -0.5519
      70    H33     23.860239   22.412079   24.116043 H          1 MOL1         0.3769
      71    C21     21.560768   23.525243   22.962387 C.3        1 MOL1         0.1053
      72    H34     21.360334   22.497226   23.297402 H          1 MOL1         0.0783
      73    O18     21.011020   24.462494   23.897177 O.3        1 MOL1        -0.5519
      74    H35     21.576277   24.384785   24.697291 H          1 MOL1         0.3769
      75    C22     20.900185   23.717491   21.576720 C.3        1 MOL1         0.1018
      76    H36     20.963694   24.780272   21.309009 H          1 MOL1         0.0783
      77    C23     21.609887   22.859071   20.492177 C.3        1 MOL1         0.1043
      78    H37     21.461311   21.801421   20.746743 H          1 MOL1         0.0783
      79    O19     23.028480   23.165567   20.509432 O.3        1 MOL1        -0.3740
      80    C24     21.094640   23.056500   19.043635 C.3        1 MOL1         0.0138
      81    H38     20.231275   22.398158   18.888095 H          1 MOL1         0.0794
      82    H39     21.874810   22.725282   18.345870 H          1 MOL1         0.0794
      83    O20     20.727225   24.409097   18.753893 O.3        1 MOL1        -0.5486
      84    H40     19.764156   24.481379   18.938756 H          1 MOL1         0.3769
      85    C25     25.100839   17.653573   21.518940 C.3        1 MOL1         0.2972
      86    H41     25.816837   16.850060   21.304436 H          1 MOL1         0.0751
      87    O21     23.792311   17.123560   21.790537 O.3        1 MOL1        -0.3740
      88    C26     25.557762   18.435944   22.776085 C.3        1 MOL1         0.1003
      89    H42     26.574041   18.804142   22.585011 H          1 MOL1         0.0783
      90    O22     25.573940   17.564459   23.917295 O.3        1 MOL1        -0.5519
      91    H43     24.801014   16.959382   23.806506 H          1 MOL1         0.3769
      92    C27     24.649215   19.660509   23.045705 C.3        1 MOL1         0.1053
      93    H44     23.652114   19.296896   23.336645 H          1 MOL1         0.0783
      94    O23     25.216510   20.443894   24.103478 O.3        1 MOL1        -0.5519
      95    H45     25.420031   19.799241   24.816534 H          1 MOL1         0.3769
      96    C28     24.490799   20.526226   21.772887 C.3        1 MOL1         0.1018
      97    H46     25.451665   21.009776   21.553786 H          1 MOL1         0.0783
      98    C29     24.050307   19.649439   20.566775 C.3        1 MOL1         0.1043
      99    H47     23.057900   19.235217   20.794121 H          1 MOL1         0.0783
     100    O24     25.006452   18.569391   20.406822 O.3        1 MOL1        -0.3740
     101    C30     23.941583   20.382293   19.205672 C.3        1 MOL1         0.0138
     102    H48     22.930928   20.796876   19.116087 H          1 MOL1         0.0794
     103    H49     24.050910   19.644781   18.399850 H          1 MOL1         0.0794
     104    O25     24.911832   21.421545   19.042442 O.3        1 MOL1        -0.5486
     105    H50     24.520746   22.230602   19.445033 H          1 MOL1         0.3769
     106    C31     21.232021   13.984174   20.703171 C.3        1 MOL1         0.2972
     107    H51     20.825303   13.056487   20.280449 H          1 MOL1         0.0751
     108    O26     20.194089   14.823151   21.237822 O.3        1 MOL1        -0.3740
     109    C32     22.246968   13.680202   21.835737 C.3        1 MOL1         0.1003
     110    H52     23.040628   13.058916   21.401009 H          1 MOL1         0.0783
     111    O27     21.623070   12.958774   22.910353 O.3        1 MOL1        -0.5519
     112    H53     20.805482   13.458988   23.163222 H          1 MOL1         0.3769
     113    C33     22.901323   14.981448   22.365736 C.3        1 MOL1         0.1053
     114    H54     22.129993   15.568185   22.884720 H          1 MOL1         0.0783
     115    O28     23.952653   14.639808   23.277252 O.3        1 MOL1        -0.5519
     116    H55     23.558280   13.976747   23.885686 H          1 MOL1         0.3769
     117    C34     23.466222   15.845105   21.208901 C.3        1 MOL1         0.1018
     118    H56     24.353373   15.341535   20.803550 H          1 MOL1         0.0783
     119    C35     22.411691   16.036309   20.080618 C.3        1 MOL1         0.1043
     120    H57     21.586949   16.640438   20.481637 H          1 MOL1         0.0783
     121    O29     21.916763   14.734780   19.681044 O.3        1 MOL1        -0.3740
     122    C36     22.914403   16.742845   18.798298 C.3        1 MOL1         0.0138
     123    H58     22.764885   17.821347   18.917742 H          1 MOL1         0.0794
     124    H59     22.278008   16.429777   17.960190 H          1 MOL1         0.0794
     125    O30     24.286273   16.467568   18.495184 O.3        1 MOL1        -0.5486
     126    H60     24.820815   17.096345   19.032862 H          1 MOL1         0.3769
     127    C1      20.520803   18.862614   22.314899 C.2        1 MOL1         0.6132
     128    O1      20.992568   17.902722   22.890392 O.co2      1 MOL1        -0.6749
     129    O2      20.855386   20.014078   22.508602 O.co2      1 MOL1        -0.6749
     130    C2      19.415049   18.614287   21.299566 C.3        1 MOL1        -0.1955
     131    H1      18.535114   19.149968   21.670155 H          1 MOL1         0.0733
     132    H2      19.173872   17.546221   21.304438 H          1 MOL1         0.0733
     133    C3      19.769196   19.090553   19.902859 C.2        1 MOL1        -0.1395
     134    H3      20.003558   20.149155   19.823117 H          1 MOL1         0.0816
     135    C4      19.811918   18.308153   18.821380 C.2        1 MOL1        -0.1394
     136    H4      19.594020   17.244548   18.898033 H          1 MOL1         0.0816
     137    C5      20.146291   18.804124   17.432621 C.3        1 MOL1        -0.1826
     138    H5      20.462681   19.855567   17.461931 H          1 MOL1         0.0736
     139    H6      20.989558   18.232021   17.025421 H          1 MOL1         0.0736
     140    C6      18.939617   18.657976   16.485389 C.3        1 MOL1        -0.2882
     141    H7      18.087765   19.252778   16.835948 H          1 MOL1         0.0749
     142    H8      19.197899   19.001324   15.475391 H          1 MOL1         0.0749
     143    H9      18.620798   17.609866   16.415749 H          1 MOL1         0.0749
@<TRIPOS>BOND
    1     1     2    1
    2     1     3    1
    3     1     4    1
    4     4     5    1
    5     4     6    1
    6     6     7    1
    7     4     8    1
    8     8     9    1
    9     8    10    1
   10    10    11    1
   11     8    12    1
   12    12    13    1
   13    12    14    1
   14    14    15    1
   15     1    16    1
   16    14    16    1
   17    14    17    1
   18    17    18    1
   19    17    19    1
   20    17    20    1
   21    20    21    1
   22    22    23    1
   23    22    24    1
   24    22    25    1
   25    25    26    1
   26    25    27    1
   27    27    28    1
   28    25    29    1
   29    29    30    1
   30    29    31    1
   31    31    32    1
   32     3    33    1
   33    29    33    1
   34    33    34    1
   35    33    35    1
   36    35    36    1
   37    22    37    1
   38    35    37    1
   39    35    38    1
   40    38    39    1
   41    38    40    1
   42    38    41    1
   43    41    42    1
   44    43    44    1
   45    43    45    1
   46    43    46    1
   47    46    47    1
   48    46    48    1
   49    48    49    1
   50    46    50    1
   51    50    51    1
   52    50    52    1
   53    52    53    1
   54    24    54    1
   55    50    54    1
   56    54    55    1
   57    54    56    1
   58    56    57    1
   59    43    58    1
   60    56    58    1
   61    56    59    1
   62    59    60    1
   63    59    61    1
   64    59    62    1
   65    62    63    1
   66    64    65    1
   67    64    66    1
   68    64    67    1
   69    67    68    1
   70    67    69    1
   71    69    70    1
   72    67    71    1
   73    71    72    1
   74    71    73    1
   75    73    74    1
   76    45    75    1
   77    71    75    1
   78    75    76    1
   79    75    77    1
   80    77    78    1
   81    64    79    1
   82    77    79    1
   83    77    80    1
   84    80    81    1
   85    80    82    1
   86    80    83    1
   87    83    84    1
   88    85    86    1
   89    85    87    1
   90    85    88    1
   91    88    89    1
   92    88    90    1
   93    90    91    1
   94    88    92    1
   95    92    93    1
   96    92    94    1
   97    94    95    1
   98    66    96    1
   99    92    96    1
  100    96    97    1
  101    96    98    1
  102    98    99    1
  103    85   100    1
  104    98   100    1
  105    98   101    1
  106   101   102    1
  107   101   103    1
  108   101   104    1
  109   104   105    1
  110   106   107    1
  111    12   108    1
  112   106   108    1
  113   106   109    1
  114   109   110    1
  115   109   111    1
  116   111   112    1
  117   109   113    1
  118   113   114    1
  119   113   115    1
  120   115   116    1
  121    87   117    1
  122   113   117    1
  123   117   118    1
  124   117   119    1
  125   119   120    1
  126   106   121    1
  127   119   121    1
  128   119   122    1
  129   122   123    1
  130   122   124    1
  131   122   125    1
  132   125   126    1
  133   127   128    1
  134   127   129    2
  135   127   130    1
  136   130   131    1
  137   130   132    1
  138   130   133    1
  139   133   134    1
  140   133   135    2
  141   135   136    1
  142   135   137    1
  143   137   138    1
  144   137   139    1
  145   137   140    1
  146   140   141    1
  147   140   142    1
  148   140   143    1
@<TRIPOS>SUBSTRUCTURE
       1 MOL1            1 RESIDUE      1      MOL     
       2 MOL1          143 RESIDUE      1      MOL     
@<SCITEGIC>MOL_PROPERTY
feprocess Rank
SciTegic.value.IntegerValue
1

@<SCITEGIC>MOL_PROPERTY
Conf_Id
SciTegic.value.IntegerValue
1

@<SCITEGIC>MOL_PROPERTY
Probability
SciTegic.value.DoubleValue
100.00

@<SCITEGIC>MOL_PROPERTY
G
SciTegic.value.DoubleValue
513.099

@<SCITEGIC>MOL_PROPERTY
E
SciTegic.value.DoubleValue
333.442

@<SCITEGIC>MOL_PROPERTY
-TS
SciTegic.value.DoubleValue
179.657

@<SCITEGIC>MOL_PROPERTY
U+W
SciTegic.value.DoubleValue
207.354

@<SCITEGIC>MOL_PROPERTY
U
SciTegic.value.DoubleValue
277.325

@<SCITEGIC>MOL_PROPERTY
W
SciTegic.value.DoubleValue
-69.971

@<SCITEGIC>MOL_PROPERTY
W(PB)
SciTegic.value.DoubleValue
-75.915

@<SCITEGIC>MOL_PROPERTY
W(SA)
SciTegic.value.DoubleValue
5.944

@<SCITEGIC>MOL_PROPERTY
Valence
SciTegic.value.DoubleValue
165.389

@<SCITEGIC>MOL_PROPERTY
Coulomb
SciTegic.value.DoubleValue
142.341

@<SCITEGIC>MOL_PROPERTY
VdW
SciTegic.value.DoubleValue
-30.406

@<SCITEGIC>MOL_PROPERTY
VdW6
SciTegic.value.DoubleValue
-182.525

@<SCITEGIC>MOL_PROPERTY
VdW12
SciTegic.value.DoubleValue
152.119

@<SCITEGIC>MOL_PROPERTY
Bond
SciTegic.value.DoubleValue
4.417

@<SCITEGIC>MOL_PROPERTY
Angle
SciTegic.value.DoubleValue
13.376

@<SCITEGIC>MOL_PROPERTY
Pdih
SciTegic.value.DoubleValue
147.596

@<SCITEGIC>MOL_PROPERTY
Idih
SciTegic.value.DoubleValue
0.001

@<SCITEGIC>MOL_PROPERTY
Tether
SciTegic.value.DoubleValue
0.000

