VeraChem MOL file


 20 19  0  0  0  0  0  0  0  0999 V2000     
   19.8542   19.1509   18.8169 C   0  0  0  0  0  0  0  0  0  0  0  0
   20.3378   18.6998   17.9408 H   0  0  0  0  0  0  0  0  0  0  0  0
   18.7731   18.9823   18.7280 H   0  0  0  0  0  0  0  0  0  0  0  0
   20.0352   20.2330   18.7808 H   0  0  0  0  0  0  0  0  0  0  0  0
   20.4073   18.5375   20.1216 C   0  0  0  0  0  0  0  0  0  0  0  0
   21.4949   18.6915   20.1650 H   0  0  0  0  0  0  0  0  0  0  0  0
   20.2425   17.4507   20.1127 H   0  0  0  0  0  0  0  0  0  0  0  0
   19.7440   19.1543   21.3727 C   0  0  0  0  0  0  0  0  0  0  0  0
   19.9122   20.2395   21.3827 H   0  0  0  0  0  0  0  0  0  0  0  0
   18.6580   18.9971   21.3302 H   0  0  0  0  0  0  0  0  0  0  0  0
   20.3007   18.5375   22.6694 C   0  0  0  0  0  0  0  0  0  0  0  0
   21.3793   18.7058   22.7224 H   0  0  0  0  0  0  0  0  0  0  0  0
   20.1210   17.4594   22.6697 H   0  0  0  0  0  0  0  0  0  0  0  0
   19.6776   19.1133   23.9259 N   0  3  0  0  0  0  0  0  0  0  0  0
   18.6547   18.9808   23.9098 H   0  0  0  0  0  0  0  0  0  0  0  0
   19.8199   20.1345   23.9588 H   0  0  0  0  0  0  0  0  0  0  0  0
   20.2822   18.4505   25.1565 C   0  0  0  0  0  0  0  0  0  0  0  0
   21.3589   18.6328   25.1711 H   0  0  0  0  0  0  0  0  0  0  0  0
   19.8250   18.8742   26.0534 H   0  0  0  0  0  0  0  0  0  0  0  0
   20.0897   17.3761   25.1177 H   0  0  0  0  0  0  0  0  0  0  0  0
  1  2  1  0  0  0  0
  1  3  1  0  0  0  0
  1  4  1  0  0  0  0
  1  5  1  0  0  0  0
  5  6  1  0  0  0  0
  5  7  1  0  0  0  0
  5  8  1  0  0  0  0
  8  9  1  0  0  0  0
  8 10  1  0  0  0  0
  8 11  1  0  0  0  0
 11 12  1  0  0  0  0
 11 13  1  0  0  0  0
 11 14  1  0  0  0  0
 14 15  1  0  0  0  0
 14 16  1  0  0  0  0
 14 17  1  0  0  0  0
 17 18  1  0  0  0  0
 17 19  1  0  0  0  0
 17 20  1  0  0  0  0
M  END
> <VM2 Rank>
1

> <Conf_Id>
167

> <Probability>
13.71

> <Sum Probability>
13.71

> <Delta G>
0.000

> <G>
53.936

> <E>
31.434

> <-TS>
22.502

> <U+W>
15.338

> <U>
69.277

> <W>
-53.939

> <W(PB)>
-55.889

> <W(SA)>
1.950

> <Valence>
0.846

> <Coulomb>
68.557

> <VdW>
-0.127

> <VdW6>
-3.008

> <VdW12>
2.882

> <Bond>
0.088

> <Angle>
0.332

> <Pdih>
0.426

> <Idih>
0.000

> <Tether>
0.000

$$$$
VeraChem MOL file


 20 19  0  0  0  0  0  0  0  0999 V2000     
   20.2445   19.5234   19.0576 C   0  0  0  0  0  0  0  0  0  0  0  0
   21.0842   20.2047   19.2476 H   0  0  0  0  0  0  0  0  0  0  0  0
   20.4067   19.0552   18.0780 H   0  0  0  0  0  0  0  0  0  0  0  0
   19.3263   20.1220   18.9960 H   0  0  0  0  0  0  0  0  0  0  0  0
   20.1366   18.4514   20.1636 C   0  0  0  0  0  0  0  0  0  0  0  0
   21.0550   17.8475   20.1777 H   0  0  0  0  0  0  0  0  0  0  0  0
   19.3111   17.7651   19.9275 H   0  0  0  0  0  0  0  0  0  0  0  0
   19.9076   19.0821   21.5548 C   0  0  0  0  0  0  0  0  0  0  0  0
   20.7340   19.7663   21.7862 H   0  0  0  0  0  0  0  0  0  0  0  0
   18.9878   19.6816   21.5412 H   0  0  0  0  0  0  0  0  0  0  0  0
   19.7996   18.0035   22.6525 C   0  0  0  0  0  0  0  0  0  0  0  0
   20.7305   17.4334   22.7055 H   0  0  0  0  0  0  0  0  0  0  0  0
   18.9942   17.3120   22.3921 H   0  0  0  0  0  0  0  0  0  0  0  0
   19.5006   18.5423   24.0421 N   0  3  0  0  0  0  0  0  0  0  0  0
   19.2828   17.7580   24.6768 H   0  0  0  0  0  0  0  0  0  0  0  0
   18.6430   19.1150   24.0265 H   0  0  0  0  0  0  0  0  0  0  0  0
   20.6771   19.3414   24.5924 C   0  0  0  0  0  0  0  0  0  0  0  0
   20.4389   19.6780   25.6038 H   0  0  0  0  0  0  0  0  0  0  0  0
   21.5643   18.7049   24.6161 H   0  0  0  0  0  0  0  0  0  0  0  0
   20.8590   20.2067   23.9521 H   0  0  0  0  0  0  0  0  0  0  0  0
  1  2  1  0  0  0  0
  1  3  1  0  0  0  0
  1  4  1  0  0  0  0
  1  5  1  0  0  0  0
  5  6  1  0  0  0  0
  5  7  1  0  0  0  0
  5  8  1  0  0  0  0
  8  9  1  0  0  0  0
  8 10  1  0  0  0  0
  8 11  1  0  0  0  0
 11 12  1  0  0  0  0
 11 13  1  0  0  0  0
 11 14  1  0  0  0  0
 14 15  1  0  0  0  0
 14 16  1  0  0  0  0
 14 17  1  0  0  0  0
 17 18  1  0  0  0  0
 17 19  1  0  0  0  0
 17 20  1  0  0  0  0
M  END
> <VM2 Rank>
2

> <Conf_Id>
212

> <Probability>
10.70

> <Sum Probability>
24.41

> <Delta G>
0.148

> <G>
54.084

> <E>
31.414

> <-TS>
22.671

> <U+W>
15.317

> <U>
69.657

> <W>
-54.340

> <W(PB)>
-56.238

> <W(SA)>
1.899

> <Valence>
1.137

> <Coulomb>
68.383

> <VdW>
0.138

> <VdW6>
-3.703

> <VdW12>
3.841

> <Bond>
0.125

> <Angle>
0.468

> <Pdih>
0.543

> <Idih>
0.000

> <Tether>
0.000

$$$$
VeraChem MOL file


 20 19  0  0  0  0  0  0  0  0999 V2000     
   19.4687   18.7547   19.0250 C   0  0  0  0  0  0  0  0  0  0  0  0
   19.9766   18.6288   18.0600 H   0  0  0  0  0  0  0  0  0  0  0  0
   18.7729   17.9149   19.1507 H   0  0  0  0  0  0  0  0  0  0  0  0
   18.8811   19.6808   18.9773 H   0  0  0  0  0  0  0  0  0  0  0  0
   20.4939   18.8053   20.1786 C   0  0  0  0  0  0  0  0  0  0  0  0
   21.1966   19.6329   20.0065 H   0  0  0  0  0  0  0  0  0  0  0  0
   21.0888   17.8809   20.1792 H   0  0  0  0  0  0  0  0  0  0  0  0
   19.8069   18.9825   21.5506 C   0  0  0  0  0  0  0  0  0  0  0  0
   19.2163   19.9081   21.5507 H   0  0  0  0  0  0  0  0  0  0  0  0
   19.1064   18.1541   21.7180 H   0  0  0  0  0  0  0  0  0  0  0  0
   20.8390   19.0334   22.6961 C   0  0  0  0  0  0  0  0  0  0  0  0
   21.5476   19.8419   22.4992 H   0  0  0  0  0  0  0  0  0  0  0  0
   21.3985   18.0953   22.7335 H   0  0  0  0  0  0  0  0  0  0  0  0
   20.2445   19.2793   24.0733 N   0  3  0  0  0  0  0  0  0  0  0  0
   19.6801   20.1426   24.0700 H   0  0  0  0  0  0  0  0  0  0  0  0
   21.0030   19.4625   24.7489 H   0  0  0  0  0  0  0  0  0  0  0  0
   19.4131   18.0889   24.5394 C   0  0  0  0  0  0  0  0  0  0  0  0
   20.0406   17.1951   24.5522 H   0  0  0  0  0  0  0  0  0  0  0  0
   19.0359   18.2879   25.5450 H   0  0  0  0  0  0  0  0  0  0  0  0
   18.5741   17.9426   23.8563 H   0  0  0  0  0  0  0  0  0  0  0  0
  1  2  1  0  0  0  0
  1  3  1  0  0  0  0
  1  4  1  0  0  0  0
  1  5  1  0  0  0  0
  5  6  1  0  0  0  0
  5  7  1  0  0  0  0
  5  8  1  0  0  0  0
  8  9  1  0  0  0  0
  8 10  1  0  0  0  0
  8 11  1  0  0  0  0
 11 12  1  0  0  0  0
 11 13  1  0  0  0  0
 11 14  1  0  0  0  0
 14 15  1  0  0  0  0
 14 16  1  0  0  0  0
 14 17  1  0  0  0  0
 17 18  1  0  0  0  0
 17 19  1  0  0  0  0
 17 20  1  0  0  0  0
M  END
> <VM2 Rank>
3

> <Conf_Id>
2

> <Probability>
9.20

> <Sum Probability>
33.61

> <Delta G>
0.237

> <G>
54.174

> <E>
31.503

> <-TS>
22.670

> <U+W>
15.407

> <U>
69.657

> <W>
-54.250

> <W(PB)>
-56.176

> <W(SA)>
1.926

> <Valence>
1.137

> <Coulomb>
68.383

> <VdW>
0.138

> <VdW6>
-3.703

> <VdW12>
3.841

> <Bond>
0.125

> <Angle>
0.468

> <Pdih>
0.543

> <Idih>
0.000

> <Tether>
0.000

$$$$
VeraChem MOL file


 20 19  0  0  0  0  0  0  0  0999 V2000     
   20.8668   19.3663   19.5193 C   0  0  0  0  0  0  0  0  0  0  0  0
   20.5580   20.4197   19.5220 H   0  0  0  0  0  0  0  0  0  0  0  0
   21.7365   19.2623   20.1804 H   0  0  0  0  0  0  0  0  0  0  0  0
   21.1934   19.1160   18.5017 H   0  0  0  0  0  0  0  0  0  0  0  0
   19.7056   18.4447   19.9580 C   0  0  0  0  0  0  0  0  0  0  0  0
   20.0426   17.3984   19.9527 H   0  0  0  0  0  0  0  0  0  0  0  0
   18.8957   18.5117   19.2180 H   0  0  0  0  0  0  0  0  0  0  0  0
   19.1424   18.8038   21.3530 C   0  0  0  0  0  0  0  0  0  0  0  0
   18.7745   19.8384   21.3461 H   0  0  0  0  0  0  0  0  0  0  0  0
   18.2761   18.1630   21.5643 H   0  0  0  0  0  0  0  0  0  0  0  0
   20.1839   18.6321   22.4760 C   0  0  0  0  0  0  0  0  0  0  0  0
   21.0332   19.2954   22.2953 H   0  0  0  0  0  0  0  0  0  0  0  0
   20.5480   17.6017   22.4844 H   0  0  0  0  0  0  0  0  0  0  0  0
   19.6384   18.9446   23.8556 N   0  3  0  0  0  0  0  0  0  0  0  0
   18.8279   18.3413   24.0637 H   0  0  0  0  0  0  0  0  0  0  0  0
   19.2751   19.9096   23.8852 H   0  0  0  0  0  0  0  0  0  0  0  0
   20.7289   18.7526   24.9011 C   0  0  0  0  0  0  0  0  0  0  0  0
   21.5609   19.4249   24.6810 H   0  0  0  0  0  0  0  0  0  0  0  0
   20.3228   18.9806   25.8891 H   0  0  0  0  0  0  0  0  0  0  0  0
   21.0739   17.7167   24.8752 H   0  0  0  0  0  0  0  0  0  0  0  0
  1  2  1  0  0  0  0
  1  3  1  0  0  0  0
  1  4  1  0  0  0  0
  1  5  1  0  0  0  0
  5  6  1  0  0  0  0
  5  7  1  0  0  0  0
  5  8  1  0  0  0  0
  8  9  1  0  0  0  0
  8 10  1  0  0  0  0
  8 11  1  0  0  0  0
 11 12  1  0  0  0  0
 11 13  1  0  0  0  0
 11 14  1  0  0  0  0
 14 15  1  0  0  0  0
 14 16  1  0  0  0  0
 14 17  1  0  0  0  0
 17 18  1  0  0  0  0
 17 19  1  0  0  0  0
 17 20  1  0  0  0  0
M  END
> <VM2 Rank>
4

> <Conf_Id>
113

> <Probability>
7.39

> <Sum Probability>
41.00

> <Delta G>
0.368

> <G>
54.305

> <E>
31.706

> <-TS>
22.599

> <U+W>
15.610

> <U>
69.798

> <W>
-54.189

> <W(PB)>
-56.121

> <W(SA)>
1.932

> <Valence>
1.134

> <Coulomb>
68.735

> <VdW>
-0.070

> <VdW6>
-3.565

> <VdW12>
3.494

> <Bond>
0.108

> <Angle>
0.456

> <Pdih>
0.569

> <Idih>
0.000

> <Tether>
0.000

$$$$
VeraChem MOL file


 20 19  0  0  0  0  0  0  0  0999 V2000     
   19.6006   18.1123   19.4663 C   0  0  0  0  0  0  0  0  0  0  0  0
   19.6689   17.2147   20.0938 H   0  0  0  0  0  0  0  0  0  0  0  0
   18.5507   18.4318   19.4379 H   0  0  0  0  0  0  0  0  0  0  0  0
   19.8907   17.8259   18.4471 H   0  0  0  0  0  0  0  0  0  0  0  0
   20.5131   19.2443   19.9918 C   0  0  0  0  0  0  0  0  0  0  0  0
   20.4845   20.0851   19.2845 H   0  0  0  0  0  0  0  0  0  0  0  0
   21.5556   18.8968   20.0161 H   0  0  0  0  0  0  0  0  0  0  0  0
   20.1003   19.7524   21.3931 C   0  0  0  0  0  0  0  0  0  0  0  0
   20.7394   20.6022   21.6675 H   0  0  0  0  0  0  0  0  0  0  0  0
   19.0703   20.1314   21.3585 H   0  0  0  0  0  0  0  0  0  0  0  0
   20.2150   18.6630   22.4773 C   0  0  0  0  0  0  0  0  0  0  0  0
   21.2408   18.2877   22.5132 H   0  0  0  0  0  0  0  0  0  0  0  0
   19.5522   17.8294   22.2333 H   0  0  0  0  0  0  0  0  0  0  0  0
   19.8497   19.1537   23.8645 N   0  3  0  0  0  0  0  0  0  0  0  0
   18.8877   19.5261   23.8691 H   0  0  0  0  0  0  0  0  0  0  0  0
   20.4512   19.9480   24.1317 H   0  0  0  0  0  0  0  0  0  0  0  0
   19.9873   18.0183   24.8700 C   0  0  0  0  0  0  0  0  0  0  0  0
   21.0201   17.6631   24.8727 H   0  0  0  0  0  0  0  0  0  0  0  0
   19.7216   18.3851   25.8639 H   0  0  0  0  0  0  0  0  0  0  0  0
   19.3171   17.2037   24.5870 H   0  0  0  0  0  0  0  0  0  0  0  0
  1  2  1  0  0  0  0
  1  3  1  0  0  0  0
  1  4  1  0  0  0  0
  1  5  1  0  0  0  0
  5  6  1  0  0  0  0
  5  7  1  0  0  0  0
  5  8  1  0  0  0  0
  8  9  1  0  0  0  0
  8 10  1  0  0  0  0
  8 11  1  0  0  0  0
 11 12  1  0  0  0  0
 11 13  1  0  0  0  0
 11 14  1  0  0  0  0
 14 15  1  0  0  0  0
 14 16  1  0  0  0  0
 14 17  1  0  0  0  0
 17 18  1  0  0  0  0
 17 19  1  0  0  0  0
 17 20  1  0  0  0  0
M  END
> <VM2 Rank>
5

> <Conf_Id>
34

> <Probability>
7.33

> <Sum Probability>
48.33

> <Delta G>
0.373

> <G>
54.310

> <E>
31.711

> <-TS>
22.599

> <U+W>
15.615

> <U>
69.798

> <W>
-54.184

> <W(PB)>
-56.116

> <W(SA)>
1.933

> <Valence>
1.134

> <Coulomb>
68.735

> <VdW>
-0.070

> <VdW6>
-3.565

> <VdW12>
3.494

> <Bond>
0.108

> <Angle>
0.456

> <Pdih>
0.569

> <Idih>
0.000

> <Tether>
0.000

$$$$
VeraChem MOL file


 20 19  0  0  0  0  0  0  0  0999 V2000     
   19.6844   18.8157   18.9889 C   0  0  0  0  0  0  0  0  0  0  0  0
   20.5415   19.3302   18.5351 H   0  0  0  0  0  0  0  0  0  0  0  0
   19.4591   17.9336   18.3756 H   0  0  0  0  0  0  0  0  0  0  0  0
   18.8181   19.4884   18.9413 H   0  0  0  0  0  0  0  0  0  0  0  0
   19.9896   18.4042   20.4454 C   0  0  0  0  0  0  0  0  0  0  0  0
   20.8398   17.7076   20.4564 H   0  0  0  0  0  0  0  0  0  0  0  0
   19.1274   17.8584   20.8519 H   0  0  0  0  0  0  0  0  0  0  0  0
   20.3101   19.6310   21.3317 C   0  0  0  0  0  0  0  0  0  0  0  0
   21.1482   20.1874   20.8914 H   0  0  0  0  0  0  0  0  0  0  0  0
   19.4538   20.3182   21.3479 H   0  0  0  0  0  0  0  0  0  0  0  0
   20.6879   19.2436   22.7755 C   0  0  0  0  0  0  0  0  0  0  0  0
   20.9885   20.1404   23.3232 H   0  0  0  0  0  0  0  0  0  0  0  0
   21.5357   18.5540   22.7610 H   0  0  0  0  0  0  0  0  0  0  0  0
   19.5633   18.5877   23.5547 N   0  3  0  0  0  0  0  0  0  0  0  0
   19.2485   17.7327   23.0727 H   0  0  0  0  0  0  0  0  0  0  0  0
   18.7396   19.2081   23.5803 H   0  0  0  0  0  0  0  0  0  0  0  0
   20.0307   18.2618   24.9668 C   0  0  0  0  0  0  0  0  0  0  0  0
   19.2126   17.7906   25.5159 H   0  0  0  0  0  0  0  0  0  0  0  0
   20.8814   17.5787   24.9158 H   0  0  0  0  0  0  0  0  0  0  0  0
   20.3278   19.1848   25.4695 H   0  0  0  0  0  0  0  0  0  0  0  0
  1  2  1  0  0  0  0
  1  3  1  0  0  0  0
  1  4  1  0  0  0  0
  1  5  1  0  0  0  0
  5  6  1  0  0  0  0
  5  7  1  0  0  0  0
  5  8  1  0  0  0  0
  8  9  1  0  0  0  0
  8 10  1  0  0  0  0
  8 11  1  0  0  0  0
 11 12  1  0  0  0  0
 11 13  1  0  0  0  0
 11 14  1  0  0  0  0
 14 15  1  0  0  0  0
 14 16  1  0  0  0  0
 14 17  1  0  0  0  0
 17 18  1  0  0  0  0
 17 19  1  0  0  0  0
 17 20  1  0  0  0  0
M  END
> <VM2 Rank>
6

> <Conf_Id>
109

> <Probability>
6.94

> <Sum Probability>
55.27

> <Delta G>
0.405

> <G>
54.342

> <E>
31.753

> <-TS>
22.589

> <U+W>
15.657

> <U>
69.962

> <W>
-54.305

> <W(PB)>
-56.224

> <W(SA)>
1.918

> <Valence>
0.982

> <Coulomb>
69.058

> <VdW>
-0.077

> <VdW6>
-3.548

> <VdW12>
3.471

> <Bond>
0.105

> <Angle>
0.408

> <Pdih>
0.469

> <Idih>
0.000

> <Tether>
0.000

$$$$
VeraChem MOL file


 20 19  0  0  0  0  0  0  0  0999 V2000     
   20.1834   19.3100   19.0098 C   0  0  0  0  0  0  0  0  0  0  0  0
   21.0926   19.5514   18.4440 H   0  0  0  0  0  0  0  0  0  0  0  0
   19.6810   18.4781   18.4991 H   0  0  0  0  0  0  0  0  0  0  0  0
   19.5210   20.1846   18.9708 H   0  0  0  0  0  0  0  0  0  0  0  0
   20.5304   18.9398   20.4681 C   0  0  0  0  0  0  0  0  0  0  0  0
   21.0660   19.7784   20.9331 H   0  0  0  0  0  0  0  0  0  0  0  0
   21.2184   18.0825   20.4723 H   0  0  0  0  0  0  0  0  0  0  0  0
   19.2645   18.5954   21.2879 C   0  0  0  0  0  0  0  0  0  0  0  0
   18.5847   19.4575   21.3116 H   0  0  0  0  0  0  0  0  0  0  0  0
   18.7198   17.7824   20.7897 H   0  0  0  0  0  0  0  0  0  0  0  0
   19.5872   18.1535   22.7294 C   0  0  0  0  0  0  0  0  0  0  0  0
   20.2693   17.2998   22.7079 H   0  0  0  0  0  0  0  0  0  0  0  0
   18.6654   17.8396   23.2259 H   0  0  0  0  0  0  0  0  0  0  0  0
   20.2194   19.2374   23.5822 N   0  3  0  0  0  0  0  0  0  0  0  0
   19.6058   20.0658   23.6165 H   0  0  0  0  0  0  0  0  0  0  0  0
   21.0968   19.5631   23.1502 H   0  0  0  0  0  0  0  0  0  0  0  0
   20.4811   18.7079   24.9857 C   0  0  0  0  0  0  0  0  0  0  0  0
   19.5350   18.4000   25.4363 H   0  0  0  0  0  0  0  0  0  0  0  0
   21.1582   17.8530   24.9275 H   0  0  0  0  0  0  0  0  0  0  0  0
   20.9359   19.4974   25.5882 H   0  0  0  0  0  0  0  0  0  0  0  0
  1  2  1  0  0  0  0
  1  3  1  0  0  0  0
  1  4  1  0  0  0  0
  1  5  1  0  0  0  0
  5  6  1  0  0  0  0
  5  7  1  0  0  0  0
  5  8  1  0  0  0  0
  8  9  1  0  0  0  0
  8 10  1  0  0  0  0
  8 11  1  0  0  0  0
 11 12  1  0  0  0  0
 11 13  1  0  0  0  0
 11 14  1  0  0  0  0
 14 15  1  0  0  0  0
 14 16  1  0  0  0  0
 14 17  1  0  0  0  0
 17 18  1  0  0  0  0
 17 19  1  0  0  0  0
 17 20  1  0  0  0  0
M  END
> <VM2 Rank>
7

> <Conf_Id>
116

> <Probability>
6.49

> <Sum Probability>
61.76

> <Delta G>
0.446

> <G>
54.382

> <E>
31.793

> <-TS>
22.589

> <U+W>
15.697

> <U>
69.962

> <W>
-54.265

> <W(PB)>
-56.166

> <W(SA)>
1.901

> <Valence>
0.982

> <Coulomb>
69.058

> <VdW>
-0.077

> <VdW6>
-3.548

> <VdW12>
3.471

> <Bond>
0.105

> <Angle>
0.408

> <Pdih>
0.469

> <Idih>
0.000

> <Tether>
0.000

$$$$
VeraChem MOL file


 20 19  0  0  0  0  0  0  0  0999 V2000     
   19.9181   18.3279   19.2182 C   0  0  0  0  0  0  0  0  0  0  0  0
   20.7103   17.9399   18.5648 H   0  0  0  0  0  0  0  0  0  0  0  0
   19.1764   17.5306   19.3572 H   0  0  0  0  0  0  0  0  0  0  0  0
   19.4301   19.1611   18.6961 H   0  0  0  0  0  0  0  0  0  0  0  0
   20.5028   18.7853   20.5721 C   0  0  0  0  0  0  0  0  0  0  0  0
   21.2633   19.5595   20.3978 H   0  0  0  0  0  0  0  0  0  0  0  0
   21.0151   17.9372   21.0462 H   0  0  0  0  0  0  0  0  0  0  0  0
   19.4052   19.3351   21.5133 C   0  0  0  0  0  0  0  0  0  0  0  0
   18.8723   20.1528   21.0103 H   0  0  0  0  0  0  0  0  0  0  0  0
   18.6571   18.5572   21.7126 H   0  0  0  0  0  0  0  0  0  0  0  0
   19.9713   19.8728   22.8464 C   0  0  0  0  0  0  0  0  0  0  0  0
   19.1568   20.2827   23.4491 H   0  0  0  0  0  0  0  0  0  0  0  0
   20.6708   20.6851   22.6328 H   0  0  0  0  0  0  0  0  0  0  0  0
   20.7073   18.8521   23.7013 N   0  3  0  0  0  0  0  0  0  0  0  0
   21.1568   19.3297   24.4982 H   0  0  0  0  0  0  0  0  0  0  0  0
   21.4853   18.4364   23.1684 H   0  0  0  0  0  0  0  0  0  0  0  0
   19.7612   17.7707   24.2117 C   0  0  0  0  0  0  0  0  0  0  0  0
   20.3179   17.0797   24.8486 H   0  0  0  0  0  0  0  0  0  0  0  0
   18.9595   18.2374   24.7879 H   0  0  0  0  0  0  0  0  0  0  0  0
   19.3401   17.2282   23.3630 H   0  0  0  0  0  0  0  0  0  0  0  0
  1  2  1  0  0  0  0
  1  3  1  0  0  0  0
  1  4  1  0  0  0  0
  1  5  1  0  0  0  0
  5  6  1  0  0  0  0
  5  7  1  0  0  0  0
  5  8  1  0  0  0  0
  8  9  1  0  0  0  0
  8 10  1  0  0  0  0
  8 11  1  0  0  0  0
 11 12  1  0  0  0  0
 11 13  1  0  0  0  0
 11 14  1  0  0  0  0
 14 15  1  0  0  0  0
 14 16  1  0  0  0  0
 14 17  1  0  0  0  0
 17 18  1  0  0  0  0
 17 19  1  0  0  0  0
 17 20  1  0  0  0  0
M  END
> <VM2 Rank>
8

> <Conf_Id>
303

> <Probability>
5.35

> <Sum Probability>
67.11

> <Delta G>
0.561

> <G>
54.497

> <E>
31.685

> <-TS>
22.812

> <U+W>
15.588

> <U>
70.298

> <W>
-54.710

> <W(PB)>
-56.587

> <W(SA)>
1.877

> <Valence>
1.245

> <Coulomb>
68.933

> <VdW>
0.120

> <VdW6>
-4.430

> <VdW12>
4.550

> <Bond>
0.148

> <Angle>
0.587

> <Pdih>
0.509

> <Idih>
0.000

> <Tether>
0.000

$$$$
VeraChem MOL file


 20 19  0  0  0  0  0  0  0  0999 V2000     
   20.6594   19.0590   19.2490 C   0  0  0  0  0  0  0  0  0  0  0  0
   19.8553   19.5806   18.7138 H   0  0  0  0  0  0  0  0  0  0  0  0
   21.4598   19.7824   19.4522 H   0  0  0  0  0  0  0  0  0  0  0  0
   21.0642   18.2890   18.5795 H   0  0  0  0  0  0  0  0  0  0  0  0
   20.1377   18.4253   20.5568 C   0  0  0  0  0  0  0  0  0  0  0  0
   20.9583   17.8811   21.0437 H   0  0  0  0  0  0  0  0  0  0  0  0
   19.3616   17.6842   20.3186 H   0  0  0  0  0  0  0  0  0  0  0  0
   19.5631   19.4907   21.5199 C   0  0  0  0  0  0  0  0  0  0  0  0
   20.3417   20.2183   21.7828 H   0  0  0  0  0  0  0  0  0  0  0  0
   18.7744   20.0563   21.0063 H   0  0  0  0  0  0  0  0  0  0  0  0
   18.9622   18.8777   22.8043 C   0  0  0  0  0  0  0  0  0  0  0  0
   18.1507   18.1998   22.5277 H   0  0  0  0  0  0  0  0  0  0  0  0
   18.5380   19.6723   23.4233 H   0  0  0  0  0  0  0  0  0  0  0  0
   19.9363   18.0917   23.6691 N   0  3  0  0  0  0  0  0  0  0  0  0
   20.3641   17.3306   23.1215 H   0  0  0  0  0  0  0  0  0  0  0  0
   19.4197   17.6163   24.4257 H   0  0  0  0  0  0  0  0  0  0  0  0
   21.0073   18.9996   24.2638 C   0  0  0  0  0  0  0  0  0  0  0  0
   20.5270   19.7834   24.8536 H   0  0  0  0  0  0  0  0  0  0  0  0
   21.6636   18.4068   24.9047 H   0  0  0  0  0  0  0  0  0  0  0  0
   21.5905   19.4479   23.4570 H   0  0  0  0  0  0  0  0  0  0  0  0
  1  2  1  0  0  0  0
  1  3  1  0  0  0  0
  1  4  1  0  0  0  0
  1  5  1  0  0  0  0
  5  6  1  0  0  0  0
  5  7  1  0  0  0  0
  5  8  1  0  0  0  0
  8  9  1  0  0  0  0
  8 10  1  0  0  0  0
  8 11  1  0  0  0  0
 11 12  1  0  0  0  0
 11 13  1  0  0  0  0
 11 14  1  0  0  0  0
 14 15  1  0  0  0  0
 14 16  1  0  0  0  0
 14 17  1  0  0  0  0
 17 18  1  0  0  0  0
 17 19  1  0  0  0  0
 17 20  1  0  0  0  0
M  END
> <VM2 Rank>
9

> <Conf_Id>
228

> <Probability>
5.19

> <Sum Probability>
72.30

> <Delta G>
0.579

> <G>
54.515

> <E>
31.703

> <-TS>
22.812

> <U+W>
15.607

> <U>
70.298

> <W>
-54.691

> <W(PB)>
-56.576

> <W(SA)>
1.885

> <Valence>
1.245

> <Coulomb>
68.933

> <VdW>
0.120

> <VdW6>
-4.430

> <VdW12>
4.550

> <Bond>
0.148

> <Angle>
0.587

> <Pdih>
0.510

> <Idih>
0.000

> <Tether>
0.000

$$$$
VeraChem MOL file


 20 19  0  0  0  0  0  0  0  0999 V2000     
   20.9217   19.1845   19.5880 C   0  0  0  0  0  0  0  0  0  0  0  0
   21.7493   18.4938   19.7956 H   0  0  0  0  0  0  0  0  0  0  0  0
   20.9062   19.3728   18.5067 H   0  0  0  0  0  0  0  0  0  0  0  0
   21.1378   20.1378   20.0866 H   0  0  0  0  0  0  0  0  0  0  0  0
   19.5721   18.5921   20.0547 C   0  0  0  0  0  0  0  0  0  0  0  0
   19.3536   17.6901   19.4660 H   0  0  0  0  0  0  0  0  0  0  0  0
   18.7625   19.3040   19.8405 H   0  0  0  0  0  0  0  0  0  0  0  0
   19.5607   18.2264   21.5574 C   0  0  0  0  0  0  0  0  0  0  0  0
   18.6052   17.7434   21.8006 H   0  0  0  0  0  0  0  0  0  0  0  0
   20.3468   17.4872   21.7580 H   0  0  0  0  0  0  0  0  0  0  0  0
   19.7504   19.4583   22.4684 C   0  0  0  0  0  0  0  0  0  0  0  0
   18.9839   20.1991   22.2270 H   0  0  0  0  0  0  0  0  0  0  0  0
   20.7279   19.9103   22.2841 H   0  0  0  0  0  0  0  0  0  0  0  0
   19.6453   19.1665   23.9564 N   0  3  0  0  0  0  0  0  0  0  0  0
   18.7463   18.7074   24.1681 H   0  0  0  0  0  0  0  0  0  0  0  0
   19.6183   20.0547   24.4815 H   0  0  0  0  0  0  0  0  0  0  0  0
   20.8159   18.3161   24.4380 C   0  0  0  0  0  0  0  0  0  0  0  0
   21.7514   18.8355   24.2195 H   0  0  0  0  0  0  0  0  0  0  0  0
   20.7249   18.1595   25.5151 H   0  0  0  0  0  0  0  0  0  0  0  0
   20.7990   17.3523   23.9254 H   0  0  0  0  0  0  0  0  0  0  0  0
  1  2  1  0  0  0  0
  1  3  1  0  0  0  0
  1  4  1  0  0  0  0
  1  5  1  0  0  0  0
  5  6  1  0  0  0  0
  5  7  1  0  0  0  0
  5  8  1  0  0  0  0
  8  9  1  0  0  0  0
  8 10  1  0  0  0  0
  8 11  1  0  0  0  0
 11 12  1  0  0  0  0
 11 13  1  0  0  0  0
 11 14  1  0  0  0  0
 14 15  1  0  0  0  0
 14 16  1  0  0  0  0
 14 17  1  0  0  0  0
 17 18  1  0  0  0  0
 17 19  1  0  0  0  0
 17 20  1  0  0  0  0
M  END
> <VM2 Rank>
10

> <Conf_Id>
250

> <Probability>
4.75

> <Sum Probability>
77.06

> <Delta G>
0.631

> <G>
54.568

> <E>
31.806

> <-TS>
22.762

> <U+W>
15.710

> <U>
70.163

> <W>
-54.453

> <W(PB)>
-56.326

> <W(SA)>
1.873

> <Valence>
1.420

> <Coulomb>
68.566

> <VdW>
0.177

> <VdW6>
-4.267

> <VdW12>
4.445

> <Bond>
0.146

> <Angle>
0.581

> <Pdih>
0.693

> <Idih>
0.000

> <Tether>
0.000

$$$$
VeraChem MOL file


 20 19  0  0  0  0  0  0  0  0999 V2000     
   19.7743   18.0541   19.5403 C   0  0  0  0  0  0  0  0  0  0  0  0
   19.6323   18.1174   18.4537 H   0  0  0  0  0  0  0  0  0  0  0  0
   20.4439   17.2077   19.7415 H   0  0  0  0  0  0  0  0  0  0  0  0
   18.7978   17.8325   19.9890 H   0  0  0  0  0  0  0  0  0  0  0  0
   20.3654   19.3736   20.0878 C   0  0  0  0  0  0  0  0  0  0  0  0
   19.6745   20.2025   19.8784 H   0  0  0  0  0  0  0  0  0  0  0  0
   21.2944   19.6021   19.5469 H   0  0  0  0  0  0  0  0  0  0  0  0
   20.6672   19.3167   21.6035 C   0  0  0  0  0  0  0  0  0  0  0  0
   21.3863   18.5114   21.8014 H   0  0  0  0  0  0  0  0  0  0  0  0
   21.1528   20.2536   21.9068 H   0  0  0  0  0  0  0  0  0  0  0  0
   19.3954   19.1087   22.4536 C   0  0  0  0  0  0  0  0  0  0  0  0
   18.9379   18.1471   22.2094 H   0  0  0  0  0  0  0  0  0  0  0  0
   18.6764   19.8963   22.2142 H   0  0  0  0  0  0  0  0  0  0  0  0
   19.6255   19.1470   23.9556 N   0  3  0  0  0  0  0  0  0  0  0  0
   18.7164   19.1661   24.4439 H   0  0  0  0  0  0  0  0  0  0  0  0
   20.0879   20.0289   24.2241 H   0  0  0  0  0  0  0  0  0  0  0  0
   20.4382   17.9440   24.4221 C   0  0  0  0  0  0  0  0  0  0  0  0
   20.5503   17.9873   25.5077 H   0  0  0  0  0  0  0  0  0  0  0  0
   19.9154   17.0267   24.1427 H   0  0  0  0  0  0  0  0  0  0  0  0
   21.4229   17.9669   23.9514 H   0  0  0  0  0  0  0  0  0  0  0  0
  1  2  1  0  0  0  0
  1  3  1  0  0  0  0
  1  4  1  0  0  0  0
  1  5  1  0  0  0  0
  5  6  1  0  0  0  0
  5  7  1  0  0  0  0
  5  8  1  0  0  0  0
  8  9  1  0  0  0  0
  8 10  1  0  0  0  0
  8 11  1  0  0  0  0
 11 12  1  0  0  0  0
 11 13  1  0  0  0  0
 11 14  1  0  0  0  0
 14 15  1  0  0  0  0
 14 16  1  0  0  0  0
 14 17  1  0  0  0  0
 17 18  1  0  0  0  0
 17 19  1  0  0  0  0
 17 20  1  0  0  0  0
M  END
> <VM2 Rank>
11

> <Conf_Id>
292

> <Probability>
4.75

> <Sum Probability>
81.81

> <Delta G>
0.632

> <G>
54.568

> <E>
31.806

> <-TS>
22.762

> <U+W>
15.710

> <U>
70.163

> <W>
-54.453

> <W(PB)>
-56.364

> <W(SA)>
1.911

> <Valence>
1.420

> <Coulomb>
68.566

> <VdW>
0.177

> <VdW6>
-4.268

> <VdW12>
4.445

> <Bond>
0.146

> <Angle>
0.581

> <Pdih>
0.693

> <Idih>
0.000

> <Tether>
0.000

$$$$
VeraChem MOL file


 20 19  0  0  0  0  0  0  0  0999 V2000     
   19.9878   19.5063   19.3467 C   0  0  0  0  0  0  0  0  0  0  0  0
   18.9086   19.7015   19.2989 H   0  0  0  0  0  0  0  0  0  0  0  0
   20.4745   20.3793   19.7994 H   0  0  0  0  0  0  0  0  0  0  0  0
   20.3578   19.4191   18.3169 H   0  0  0  0  0  0  0  0  0  0  0  0
   20.2852   18.2134   20.1405 C   0  0  0  0  0  0  0  0  0  0  0  0
   21.3709   18.0462   20.1808 H   0  0  0  0  0  0  0  0  0  0  0  0
   19.8611   17.3557   19.5996 H   0  0  0  0  0  0  0  0  0  0  0  0
   19.7080   18.2368   21.5753 C   0  0  0  0  0  0  0  0  0  0  0  0
   18.6194   18.3731   21.5318 H   0  0  0  0  0  0  0  0  0  0  0  0
   19.8837   17.2591   22.0420 H   0  0  0  0  0  0  0  0  0  0  0  0
   20.3336   19.3451   22.4496 C   0  0  0  0  0  0  0  0  0  0  0  0
   20.1582   20.3138   21.9756 H   0  0  0  0  0  0  0  0  0  0  0  0
   21.4135   19.1948   22.5228 H   0  0  0  0  0  0  0  0  0  0  0  0
   19.7752   19.4290   23.8610 N   0  3  0  0  0  0  0  0  0  0  0  0
   18.7494   19.5329   23.8338 H   0  0  0  0  0  0  0  0  0  0  0  0
   20.1160   20.2903   24.3162 H   0  0  0  0  0  0  0  0  0  0  0  0
   20.1762   18.2134   24.6899 C   0  0  0  0  0  0  0  0  0  0  0  0
   19.7901   18.3298   25.7050 H   0  0  0  0  0  0  0  0  0  0  0  0
   19.7554   17.3122   24.2398 H   0  0  0  0  0  0  0  0  0  0  0  0
   21.2655   18.1402   24.7170 H   0  0  0  0  0  0  0  0  0  0  0  0
  1  2  1  0  0  0  0
  1  3  1  0  0  0  0
  1  4  1  0  0  0  0
  1  5  1  0  0  0  0
  5  6  1  0  0  0  0
  5  7  1  0  0  0  0
  5  8  1  0  0  0  0
  8  9  1  0  0  0  0
  8 10  1  0  0  0  0
  8 11  1  0  0  0  0
 11 12  1  0  0  0  0
 11 13  1  0  0  0  0
 11 14  1  0  0  0  0
 14 15  1  0  0  0  0
 14 16  1  0  0  0  0
 14 17  1  0  0  0  0
 17 18  1  0  0  0  0
 17 19  1  0  0  0  0
 17 20  1  0  0  0  0
M  END
> <VM2 Rank>
12

> <Conf_Id>
143

> <Probability>
4.60

> <Sum Probability>
86.40

> <Delta G>
0.652

> <G>
54.588

> <E>
31.822

> <-TS>
22.766

> <U+W>
15.726

> <U>
70.231

> <W>
-54.505

> <W(PB)>
-56.395

> <W(SA)>
1.890

> <Valence>
1.441

> <Coulomb>
68.568

> <VdW>
0.222

> <VdW6>
-4.234

> <VdW12>
4.455

> <Bond>
0.148

> <Angle>
0.601

> <Pdih>
0.692

> <Idih>
0.000

> <Tether>
0.000

$$$$
VeraChem MOL file


 20 19  0  0  0  0  0  0  0  0999 V2000     
   19.4757   18.9994   19.3253 C   0  0  0  0  0  0  0  0  0  0  0  0
   19.6031   18.6721   18.2852 H   0  0  0  0  0  0  0  0  0  0  0  0
   18.5801   18.5035   19.7200 H   0  0  0  0  0  0  0  0  0  0  0  0
   19.2925   20.0817   19.3151 H   0  0  0  0  0  0  0  0  0  0  0  0
   20.7313   18.6551   20.1592 C   0  0  0  0  0  0  0  0  0  0  0  0
   21.6148   19.0923   19.6731 H   0  0  0  0  0  0  0  0  0  0  0  0
   20.8868   17.5670   20.1604 H   0  0  0  0  0  0  0  0  0  0  0  0
   20.6524   19.1718   21.6149 C   0  0  0  0  0  0  0  0  0  0  0  0
   21.6079   18.9663   22.1142 H   0  0  0  0  0  0  0  0  0  0  0  0
   20.5277   20.2627   21.6118 H   0  0  0  0  0  0  0  0  0  0  0  0
   19.5026   18.5220   22.4148 C   0  0  0  0  0  0  0  0  0  0  0  0
   19.6403   17.4384   22.4486 H   0  0  0  0  0  0  0  0  0  0  0  0
   18.5564   18.7272   21.9085 H   0  0  0  0  0  0  0  0  0  0  0  0
   19.3640   19.0218   23.8437 N   0  3  0  0  0  0  0  0  0  0  0  0
   18.4813   18.6713   24.2477 H   0  0  0  0  0  0  0  0  0  0  0  0
   19.2702   20.0488   23.8555 H   0  0  0  0  0  0  0  0  0  0  0  0
   20.5399   18.5739   24.7052 C   0  0  0  0  0  0  0  0  0  0  0  0
   20.3841   18.9184   25.7299 H   0  0  0  0  0  0  0  0  0  0  0  0
   20.6026   17.4837   24.6893 H   0  0  0  0  0  0  0  0  0  0  0  0
   21.4630   19.0037   24.3113 H   0  0  0  0  0  0  0  0  0  0  0  0
  1  2  1  0  0  0  0
  1  3  1  0  0  0  0
  1  4  1  0  0  0  0
  1  5  1  0  0  0  0
  5  6  1  0  0  0  0
  5  7  1  0  0  0  0
  5  8  1  0  0  0  0
  8  9  1  0  0  0  0
  8 10  1  0  0  0  0
  8 11  1  0  0  0  0
 11 12  1  0  0  0  0
 11 13  1  0  0  0  0
 11 14  1  0  0  0  0
 14 15  1  0  0  0  0
 14 16  1  0  0  0  0
 14 17  1  0  0  0  0
 17 18  1  0  0  0  0
 17 19  1  0  0  0  0
 17 20  1  0  0  0  0
M  END
> <VM2 Rank>
13

> <Conf_Id>
108

> <Probability>
4.24

> <Sum Probability>
90.64

> <Delta G>
0.700

> <G>
54.636

> <E>
31.871

> <-TS>
22.765

> <U+W>
15.774

> <U>
70.231

> <W>
-54.456

> <W(PB)>
-56.330

> <W(SA)>
1.874

> <Valence>
1.441

> <Coulomb>
68.568

> <VdW>
0.222

> <VdW6>
-4.234

> <VdW12>
4.455

> <Bond>
0.148

> <Angle>
0.601

> <Pdih>
0.692

> <Idih>
0.000

> <Tether>
0.000

$$$$
VeraChem MOL file


 20 19  0  0  0  0  0  0  0  0999 V2000     
   20.9000   18.3853   19.8180 C   0  0  0  0  0  0  0  0  0  0  0  0
   20.2845   17.6299   19.3123 H   0  0  0  0  0  0  0  0  0  0  0  0
   21.6439   18.7478   19.0967 H   0  0  0  0  0  0  0  0  0  0  0  0
   21.4436   17.8933   20.6343 H   0  0  0  0  0  0  0  0  0  0  0  0
   20.0312   19.5549   20.3350 C   0  0  0  0  0  0  0  0  0  0  0  0
   19.5821   20.0729   19.4760 H   0  0  0  0  0  0  0  0  0  0  0  0
   20.6690   20.2962   20.8353 H   0  0  0  0  0  0  0  0  0  0  0  0
   18.8990   19.0955   21.2874 C   0  0  0  0  0  0  0  0  0  0  0  0
   18.3051   19.9664   21.5949 H   0  0  0  0  0  0  0  0  0  0  0  0
   18.2127   18.4357   20.7402 H   0  0  0  0  0  0  0  0  0  0  0  0
   19.3986   18.3528   22.5443 C   0  0  0  0  0  0  0  0  0  0  0  0
   19.9518   17.4585   22.2477 H   0  0  0  0  0  0  0  0  0  0  0  0
   18.5408   18.0372   23.1435 H   0  0  0  0  0  0  0  0  0  0  0  0
   20.3000   19.1864   23.4350 N   0  3  0  0  0  0  0  0  0  0  0  0
   19.8098   20.0430   23.7348 H   0  0  0  0  0  0  0  0  0  0  0  0
   21.1203   19.5105   22.9017 H   0  0  0  0  0  0  0  0  0  0  0  0
   20.7372   18.3692   24.6432 C   0  0  0  0  0  0  0  0  0  0  0  0
   21.3858   18.9807   25.2743 H   0  0  0  0  0  0  0  0  0  0  0  0
   19.8546   18.0638   25.2094 H   0  0  0  0  0  0  0  0  0  0  0  0
   21.2815   17.4859   24.3024 H   0  0  0  0  0  0  0  0  0  0  0  0
  1  2  1  0  0  0  0
  1  3  1  0  0  0  0
  1  4  1  0  0  0  0
  1  5  1  0  0  0  0
  5  6  1  0  0  0  0
  5  7  1  0  0  0  0
  5  8  1  0  0  0  0
  8  9  1  0  0  0  0
  8 10  1  0  0  0  0
  8 11  1  0  0  0  0
 11 12  1  0  0  0  0
 11 13  1  0  0  0  0
 11 14  1  0  0  0  0
 14 15  1  0  0  0  0
 14 16  1  0  0  0  0
 14 17  1  0  0  0  0
 17 18  1  0  0  0  0
 17 19  1  0  0  0  0
 17 20  1  0  0  0  0
M  END
> <VM2 Rank>
14

> <Conf_Id>
92

> <Probability>
2.30

> <Sum Probability>
92.94

> <Delta G>
1.063

> <G>
54.999

> <E>
32.227

> <-TS>
22.773

> <U+W>
16.130

> <U>
70.374

> <W>
-54.244

> <W(PB)>
-56.130

> <W(SA)>
1.887

> <Valence>
1.257

> <Coulomb>
69.240

> <VdW>
-0.123

> <VdW6>
-4.336

> <VdW12>
4.213

> <Bond>
0.128

> <Angle>
0.603

> <Pdih>
0.526

> <Idih>
0.000

> <Tether>
0.000

$$$$
VeraChem MOL file


 20 19  0  0  0  0  0  0  0  0999 V2000     
   20.5633   18.0535   19.8039 C   0  0  0  0  0  0  0  0  0  0  0  0
   21.3478   18.6776   19.3566 H   0  0  0  0  0  0  0  0  0  0  0  0
   21.0126   17.4687   20.6164 H   0  0  0  0  0  0  0  0  0  0  0  0
   20.2212   17.3461   19.0374 H   0  0  0  0  0  0  0  0  0  0  0  0
   19.3851   18.9183   20.3081 C   0  0  0  0  0  0  0  0  0  0  0  0
   18.6145   18.2719   20.7497 H   0  0  0  0  0  0  0  0  0  0  0  0
   18.9101   19.4108   19.4480 H   0  0  0  0  0  0  0  0  0  0  0  0
   19.8196   20.0025   21.3258 C   0  0  0  0  0  0  0  0  0  0  0  0
   20.5113   20.7006   20.8359 H   0  0  0  0  0  0  0  0  0  0  0  0
   18.9448   20.5966   21.6216 H   0  0  0  0  0  0  0  0  0  0  0  0
   20.5015   19.4394   22.5902 C   0  0  0  0  0  0  0  0  0  0  0  0
   20.8035   20.2665   23.2377 H   0  0  0  0  0  0  0  0  0  0  0  0
   21.3998   18.8851   22.3080 H   0  0  0  0  0  0  0  0  0  0  0  0
   19.6186   18.5150   23.4067 N   0  3  0  0  0  0  0  0  0  0  0  0
   19.3060   17.7227   22.8262 H   0  0  0  0  0  0  0  0  0  0  0  0
   18.7570   19.0056   23.6910 H   0  0  0  0  0  0  0  0  0  0  0  0
   20.3779   18.0153   24.6283 C   0  0  0  0  0  0  0  0  0  0  0  0
   21.2672   17.4718   24.3019 H   0  0  0  0  0  0  0  0  0  0  0  0
   20.6714   18.8687   25.2433 H   0  0  0  0  0  0  0  0  0  0  0  0
   19.7313   17.3507   25.2056 H   0  0  0  0  0  0  0  0  0  0  0  0
  1  2  1  0  0  0  0
  1  3  1  0  0  0  0
  1  4  1  0  0  0  0
  1  5  1  0  0  0  0
  5  6  1  0  0  0  0
  5  7  1  0  0  0  0
  5  8  1  0  0  0  0
  8  9  1  0  0  0  0
  8 10  1  0  0  0  0
  8 11  1  0  0  0  0
 11 12  1  0  0  0  0
 11 13  1  0  0  0  0
 11 14  1  0  0  0  0
 14 15  1  0  0  0  0
 14 16  1  0  0  0  0
 14 17  1  0  0  0  0
 17 18  1  0  0  0  0
 17 19  1  0  0  0  0
 17 20  1  0  0  0  0
M  END
> <VM2 Rank>
15

> <Conf_Id>
297

> <Probability>
1.94

> <Sum Probability>
94.88

> <Delta G>
1.166

> <G>
55.103

> <E>
32.330

> <-TS>
22.773

> <U+W>
16.234

> <U>
70.374

> <W>
-54.140

> <W(PB)>
-56.046

> <W(SA)>
1.907

> <Valence>
1.257

> <Coulomb>
69.240

> <VdW>
-0.123

> <VdW6>
-4.336

> <VdW12>
4.213

> <Bond>
0.128

> <Angle>
0.603

> <Pdih>
0.526

> <Idih>
0.000

> <Tether>
0.000

$$$$
VeraChem MOL file


 20 19  0  0  0  0  0  0  0  0999 V2000     
   19.2819   18.9366   19.6799 C   0  0  0  0  0  0  0  0  0  0  0  0
   19.7311   19.7796   19.1390 H   0  0  0  0  0  0  0  0  0  0  0  0
   18.8405   18.2599   18.9368 H   0  0  0  0  0  0  0  0  0  0  0  0
   18.4645   19.3249   20.3003 H   0  0  0  0  0  0  0  0  0  0  0  0
   20.3395   18.1943   20.5288 C   0  0  0  0  0  0  0  0  0  0  0  0
   21.0874   17.7489   19.8578 H   0  0  0  0  0  0  0  0  0  0  0  0
   19.8682   17.3541   21.0567 H   0  0  0  0  0  0  0  0  0  0  0  0
   21.0638   19.1177   21.5397 C   0  0  0  0  0  0  0  0  0  0  0  0
   21.8260   18.5406   22.0788 H   0  0  0  0  0  0  0  0  0  0  0  0
   21.6083   19.8970   20.9905 H   0  0  0  0  0  0  0  0  0  0  0  0
   20.1198   19.8008   22.5555 C   0  0  0  0  0  0  0  0  0  0  0  0
   19.4246   20.4480   22.0154 H   0  0  0  0  0  0  0  0  0  0  0  0
   20.7043   20.4296   23.2318 H   0  0  0  0  0  0  0  0  0  0  0  0
   19.2900   18.8526   23.4075 N   0  3  0  0  0  0  0  0  0  0  0  0
   18.7326   18.2315   22.8028 H   0  0  0  0  0  0  0  0  0  0  0  0
   18.5966   19.3914   23.9496 H   0  0  0  0  0  0  0  0  0  0  0  0
   20.1711   18.0421   24.3517 C   0  0  0  0  0  0  0  0  0  0  0  0
   20.7348   18.7243   24.9915 H   0  0  0  0  0  0  0  0  0  0  0  0
   19.5388   17.3983   24.9670 H   0  0  0  0  0  0  0  0  0  0  0  0
   20.8595   17.4287   23.7670 H   0  0  0  0  0  0  0  0  0  0  0  0
  1  2  1  0  0  0  0
  1  3  1  0  0  0  0
  1  4  1  0  0  0  0
  1  5  1  0  0  0  0
  5  6  1  0  0  0  0
  5  7  1  0  0  0  0
  5  8  1  0  0  0  0
  8  9  1  0  0  0  0
  8 10  1  0  0  0  0
  8 11  1  0  0  0  0
 11 12  1  0  0  0  0
 11 13  1  0  0  0  0
 11 14  1  0  0  0  0
 14 15  1  0  0  0  0
 14 16  1  0  0  0  0
 14 17  1  0  0  0  0
 17 18  1  0  0  0  0
 17 19  1  0  0  0  0
 17 20  1  0  0  0  0
M  END
> <VM2 Rank>
16

> <Conf_Id>
294

> <Probability>
1.58

> <Sum Probability>
96.46

> <Delta G>
1.289

> <G>
55.225

> <E>
32.217

> <-TS>
23.008

> <U+W>
16.121

> <U>
70.777

> <W>
-54.656

> <W(PB)>
-56.504

> <W(SA)>
1.849

> <Valence>
1.528

> <Coulomb>
69.166

> <VdW>
0.082

> <VdW6>
-5.166

> <VdW12>
5.249

> <Bond>
0.171

> <Angle>
0.752

> <Pdih>
0.605

> <Idih>
0.000

> <Tether>
0.000

$$$$
VeraChem MOL file


 20 19  0  0  0  0  0  0  0  0999 V2000     
   20.0371   19.6845   19.7116 C   0  0  0  0  0  0  0  0  0  0  0  0
   19.2136   19.2674   19.1175 H   0  0  0  0  0  0  0  0  0  0  0  0
   19.6304   20.4793   20.3492 H   0  0  0  0  0  0  0  0  0  0  0  0
   20.7485   20.1493   19.0167 H   0  0  0  0  0  0  0  0  0  0  0  0
   20.7334   18.5844   20.5452 C   0  0  0  0  0  0  0  0  0  0  0  0
   21.5548   19.0241   21.1273 H   0  0  0  0  0  0  0  0  0  0  0  0
   21.2001   17.8606   19.8624 H   0  0  0  0  0  0  0  0  0  0  0  0
   19.7617   17.8284   21.4851 C   0  0  0  0  0  0  0  0  0  0  0  0
   19.0015   17.3156   20.8813 H   0  0  0  0  0  0  0  0  0  0  0  0
   20.3088   17.0381   22.0153 H   0  0  0  0  0  0  0  0  0  0  0  0
   19.0448   18.7362   22.5105 C   0  0  0  0  0  0  0  0  0  0  0  0
   18.3828   18.1307   23.1345 H   0  0  0  0  0  0  0  0  0  0  0  0
   18.4271   19.4603   21.9736 H   0  0  0  0  0  0  0  0  0  0  0  0
   19.9635   19.5194   23.4356 N   0  3  0  0  0  0  0  0  0  0  0  0
   19.4084   20.1953   23.9835 H   0  0  0  0  0  0  0  0  0  0  0  0
   20.6146   20.0949   22.8816 H   0  0  0  0  0  0  0  0  0  0  0  0
   20.7254   18.5911   24.3750 C   0  0  0  0  0  0  0  0  0  0  0  0
   21.3566   17.9210   23.7880 H   0  0  0  0  0  0  0  0  0  0  0  0
   21.3483   19.1901   25.0428 H   0  0  0  0  0  0  0  0  0  0  0  0
   20.0117   18.0086   24.9614 H   0  0  0  0  0  0  0  0  0  0  0  0
  1  2  1  0  0  0  0
  1  3  1  0  0  0  0
  1  4  1  0  0  0  0
  1  5  1  0  0  0  0
  5  6  1  0  0  0  0
  5  7  1  0  0  0  0
  5  8  1  0  0  0  0
  8  9  1  0  0  0  0
  8 10  1  0  0  0  0
  8 11  1  0  0  0  0
 11 12  1  0  0  0  0
 11 13  1  0  0  0  0
 11 14  1  0  0  0  0
 14 15  1  0  0  0  0
 14 16  1  0  0  0  0
 14 17  1  0  0  0  0
 17 18  1  0  0  0  0
 17 19  1  0  0  0  0
 17 20  1  0  0  0  0
M  END
> <VM2 Rank>
17

> <Conf_Id>
183

> <Probability>
1.58

> <Sum Probability>
98.03

> <Delta G>
1.290

> <G>
55.226

> <E>
32.218

> <-TS>
23.008

> <U+W>
16.122

> <U>
70.777

> <W>
-54.655

> <W(PB)>
-56.491

> <W(SA)>
1.836

> <Valence>
1.529

> <Coulomb>
69.166

> <VdW>
0.082

> <VdW6>
-5.166

> <VdW12>
5.248

> <Bond>
0.171

> <Angle>
0.752

> <Pdih>
0.605

> <Idih>
0.000

> <Tether>
0.000

$$$$
VeraChem MOL file


 20 19  0  0  0  0  0  0  0  0999 V2000     
   19.7479   18.3614   19.2371 C   0  0  0  0  0  0  0  0  0  0  0  0
   18.6601   18.2296   19.3037 H   0  0  0  0  0  0  0  0  0  0  0  0
   19.9468   19.2714   18.6562 H   0  0  0  0  0  0  0  0  0  0  0  0
   20.1560   17.5098   18.6773 H   0  0  0  0  0  0  0  0  0  0  0  0
   20.3842   18.4466   20.6415 C   0  0  0  0  0  0  0  0  0  0  0  0
   21.4742   18.5460   20.5410 H   0  0  0  0  0  0  0  0  0  0  0  0
   20.2037   17.5039   21.1716 H   0  0  0  0  0  0  0  0  0  0  0  0
   19.8271   19.6429   21.4499 C   0  0  0  0  0  0  0  0  0  0  0  0
   20.0031   20.5607   20.8733 H   0  0  0  0  0  0  0  0  0  0  0  0
   18.7388   19.5574   21.5668 H   0  0  0  0  0  0  0  0  0  0  0  0
   20.4958   19.8175   22.8325 C   0  0  0  0  0  0  0  0  0  0  0  0
   20.4758   20.8807   23.0856 H   0  0  0  0  0  0  0  0  0  0  0  0
   21.5432   19.5091   22.7862 H   0  0  0  0  0  0  0  0  0  0  0  0
   19.8280   19.0944   23.9949 N   0  3  0  0  0  0  0  0  0  0  0  0
   18.8323   19.3565   24.0533 H   0  0  0  0  0  0  0  0  0  0  0  0
   20.2374   19.4307   24.8805 H   0  0  0  0  0  0  0  0  0  0  0  0
   19.9829   17.5812   23.9072 C   0  0  0  0  0  0  0  0  0  0  0  0
   21.0413   17.3318   23.8061 H   0  0  0  0  0  0  0  0  0  0  0  0
   19.5834   17.1289   24.8176 H   0  0  0  0  0  0  0  0  0  0  0  0
   19.4263   17.2108   23.0450 H   0  0  0  0  0  0  0  0  0  0  0  0
  1  2  1  0  0  0  0
  1  3  1  0  0  0  0
  1  4  1  0  0  0  0
  1  5  1  0  0  0  0
  5  6  1  0  0  0  0
  5  7  1  0  0  0  0
  5  8  1  0  0  0  0
  8  9  1  0  0  0  0
  8 10  1  0  0  0  0
  8 11  1  0  0  0  0
 11 12  1  0  0  0  0
 11 13  1  0  0  0  0
 11 14  1  0  0  0  0
 14 15  1  0  0  0  0
 14 16  1  0  0  0  0
 14 17  1  0  0  0  0
 17 18  1  0  0  0  0
 17 19  1  0  0  0  0
 17 20  1  0  0  0  0
M  END
> <VM2 Rank>
18

> <Conf_Id>
253

> <Probability>
0.66

> <Sum Probability>
98.70

> <Delta G>
1.806

> <G>
55.742

> <E>
33.200

> <-TS>
22.542

> <U+W>
17.103

> <U>
71.852

> <W>
-54.749

> <W(PB)>
-56.607

> <W(SA)>
1.858

> <Valence>
3.010

> <Coulomb>
68.712

> <VdW>
0.130

> <VdW6>
-4.513

> <VdW12>
4.644

> <Bond>
0.159

> <Angle>
1.000

> <Pdih>
1.850

> <Idih>
0.000

> <Tether>
0.000

$$$$
VeraChem MOL file


 20 19  0  0  0  0  0  0  0  0999 V2000     
   20.6266   19.2312   19.2740 C   0  0  0  0  0  0  0  0  0  0  0  0
   20.7659   20.3137   19.3923 H   0  0  0  0  0  0  0  0  0  0  0  0
   21.4970   18.8374   18.7335 H   0  0  0  0  0  0  0  0  0  0  0  0
   19.7400   19.0673   18.6476 H   0  0  0  0  0  0  0  0  0  0  0  0
   20.4759   18.5373   20.6452 C   0  0  0  0  0  0  0  0  0  0  0  0
   21.3971   18.6846   21.2215 H   0  0  0  0  0  0  0  0  0  0  0  0
   20.3704   17.4538   20.4944 H   0  0  0  0  0  0  0  0  0  0  0  0
   19.2519   19.0735   21.4259 C   0  0  0  0  0  0  0  0  0  0  0  0
   19.3428   20.1550   21.5923 H   0  0  0  0  0  0  0  0  0  0  0  0
   18.3576   18.9323   20.8046 H   0  0  0  0  0  0  0  0  0  0  0  0
   19.0128   18.3494   22.7704 C   0  0  0  0  0  0  0  0  0  0  0  0
   19.3133   17.3016   22.6928 H   0  0  0  0  0  0  0  0  0  0  0  0
   17.9401   18.3705   22.9794 H   0  0  0  0  0  0  0  0  0  0  0  0
   19.6924   18.9599   23.9893 N   0  3  0  0  0  0  0  0  0  0  0  0
   19.3154   18.5172   24.8419 H   0  0  0  0  0  0  0  0  0  0  0  0
   19.4369   19.9550   24.0790 H   0  0  0  0  0  0  0  0  0  0  0  0
   21.2064   18.7927   23.9582 C   0  0  0  0  0  0  0  0  0  0  0  0
   21.6236   19.1488   24.9028 H   0  0  0  0  0  0  0  0  0  0  0  0
   21.4504   17.7368   23.8227 H   0  0  0  0  0  0  0  0  0  0  0  0
   21.6177   19.3810   23.1366 H   0  0  0  0  0  0  0  0  0  0  0  0
  1  2  1  0  0  0  0
  1  3  1  0  0  0  0
  1  4  1  0  0  0  0
  1  5  1  0  0  0  0
  5  6  1  0  0  0  0
  5  7  1  0  0  0  0
  5  8  1  0  0  0  0
  8  9  1  0  0  0  0
  8 10  1  0  0  0  0
  8 11  1  0  0  0  0
 11 12  1  0  0  0  0
 11 13  1  0  0  0  0
 11 14  1  0  0  0  0
 14 15  1  0  0  0  0
 14 16  1  0  0  0  0
 14 17  1  0  0  0  0
 17 18  1  0  0  0  0
 17 19  1  0  0  0  0
 17 20  1  0  0  0  0
M  END
> <VM2 Rank>
19

> <Conf_Id>
274

> <Probability>
0.60

> <Sum Probability>
99.29

> <Delta G>
1.868

> <G>
55.805

> <E>
33.261

> <-TS>
22.544

> <U+W>
17.165

> <U>
71.852

> <W>
-54.687

> <W(PB)>
-56.549

> <W(SA)>
1.861

> <Valence>
3.010

> <Coulomb>
68.712

> <VdW>
0.131

> <VdW6>
-4.514

> <VdW12>
4.645

> <Bond>
0.159

> <Angle>
1.000

> <Pdih>
1.851

> <Idih>
0.000

> <Tether>
0.000

$$$$
VeraChem MOL file


 20 19  0  0  0  0  0  0  0  0999 V2000     
   20.1900   17.7885   20.0712 C   0  0  0  0  0  0  0  0  0  0  0  0
   20.9703   17.2800   19.4905 H   0  0  0  0  0  0  0  0  0  0  0  0
   19.9039   17.1236   20.8953 H   0  0  0  0  0  0  0  0  0  0  0  0
   19.3171   17.9168   19.4181 H   0  0  0  0  0  0  0  0  0  0  0  0
   20.7010   19.1531   20.5884 C   0  0  0  0  0  0  0  0  0  0  0  0
   21.0407   19.7516   19.7315 H   0  0  0  0  0  0  0  0  0  0  0  0
   21.5865   19.0098   21.2210 H   0  0  0  0  0  0  0  0  0  0  0  0
   19.6211   19.9550   21.3553 C   0  0  0  0  0  0  0  0  0  0  0  0
   20.0348   20.9267   21.6555 H   0  0  0  0  0  0  0  0  0  0  0  0
   18.7960   20.1797   20.6666 H   0  0  0  0  0  0  0  0  0  0  0  0
   19.0321   19.2504   22.5999 C   0  0  0  0  0  0  0  0  0  0  0  0
   18.6210   18.2747   22.3304 H   0  0  0  0  0  0  0  0  0  0  0  0
   18.2076   19.8640   22.9718 H   0  0  0  0  0  0  0  0  0  0  0  0
   19.9917   19.0642   23.7659 N   0  3  0  0  0  0  0  0  0  0  0  0
   19.4618   19.1021   24.6506 H   0  0  0  0  0  0  0  0  0  0  0  0
   20.6493   19.8562   23.8197 H   0  0  0  0  0  0  0  0  0  0  0  0
   20.7302   17.7327   23.6823 C   0  0  0  0  0  0  0  0  0  0  0  0
   21.3819   17.6310   24.5528 H   0  0  0  0  0  0  0  0  0  0  0  0
   20.0016   16.9193   23.6731 H   0  0  0  0  0  0  0  0  0  0  0  0
   21.3293   17.6998   22.7718 H   0  0  0  0  0  0  0  0  0  0  0  0
  1  2  1  0  0  0  0
  1  3  1  0  0  0  0
  1  4  1  0  0  0  0
  1  5  1  0  0  0  0
  5  6  1  0  0  0  0
  5  7  1  0  0  0  0
  5  8  1  0  0  0  0
  8  9  1  0  0  0  0
  8 10  1  0  0  0  0
  8 11  1  0  0  0  0
 11 12  1  0  0  0  0
 11 13  1  0  0  0  0
 11 14  1  0  0  0  0
 14 15  1  0  0  0  0
 14 16  1  0  0  0  0
 14 17  1  0  0  0  0
 17 18  1  0  0  0  0
 17 19  1  0  0  0  0
 17 20  1  0  0  0  0
M  END
> <VM2 Rank>
20

> <Conf_Id>
283

> <Probability>
0.21

> <Sum Probability>
99.50

> <Delta G>
2.495

> <G>
56.432

> <E>
33.223

> <-TS>
23.209

> <U+W>
17.127

> <U>
72.122

> <W>
-54.995

> <W(PB)>
-56.810

> <W(SA)>
1.815

> <Valence>
3.197

> <Coulomb>
69.115

> <VdW>
-0.190

> <VdW6>
-5.585

> <VdW12>
5.395

> <Bond>
0.177

> <Angle>
1.207

> <Pdih>
1.813

> <Idih>
0.000

> <Tether>
0.000

$$$$
VeraChem MOL file


 20 19  0  0  0  0  0  0  0  0999 V2000     
   21.1592   18.7464   20.1117 C   0  0  0  0  0  0  0  0  0  0  0  0
   21.0681   19.6473   19.4912 H   0  0  0  0  0  0  0  0  0  0  0  0
   21.7918   18.9894   20.9742 H   0  0  0  0  0  0  0  0  0  0  0  0
   21.6833   17.9846   19.5203 H   0  0  0  0  0  0  0  0  0  0  0  0
   19.7685   18.2315   20.5494 C   0  0  0  0  0  0  0  0  0  0  0  0
   19.8753   17.3187   21.1494 H   0  0  0  0  0  0  0  0  0  0  0  0
   19.2031   17.9355   19.6547 H   0  0  0  0  0  0  0  0  0  0  0  0
   18.9467   19.2885   21.3271 C   0  0  0  0  0  0  0  0  0  0  0  0
   18.7603   20.1445   20.6651 H   0  0  0  0  0  0  0  0  0  0  0  0
   17.9588   18.8749   21.5687 H   0  0  0  0  0  0  0  0  0  0  0  0
   19.6044   19.8160   22.6239 C   0  0  0  0  0  0  0  0  0  0  0  0
   18.9846   20.6320   23.0043 H   0  0  0  0  0  0  0  0  0  0  0  0
   20.5950   20.2258   22.4130 H   0  0  0  0  0  0  0  0  0  0  0  0
   19.7307   18.8063   23.7550 N   0  3  0  0  0  0  0  0  0  0  0  0
   18.9301   18.1570   23.7477 H   0  0  0  0  0  0  0  0  0  0  0  0
   19.6612   19.2992   24.6589 H   0  0  0  0  0  0  0  0  0  0  0  0
   21.0565   18.0552   23.6959 C   0  0  0  0  0  0  0  0  0  0  0  0
   21.8774   18.7733   23.7516 H   0  0  0  0  0  0  0  0  0  0  0  0
   21.1143   17.3664   24.5416 H   0  0  0  0  0  0  0  0  0  0  0  0
   21.1214   17.4943   22.7631 H   0  0  0  0  0  0  0  0  0  0  0  0
  1  2  1  0  0  0  0
  1  3  1  0  0  0  0
  1  4  1  0  0  0  0
  1  5  1  0  0  0  0
  5  6  1  0  0  0  0
  5  7  1  0  0  0  0
  5  8  1  0  0  0  0
  8  9  1  0  0  0  0
  8 10  1  0  0  0  0
  8 11  1  0  0  0  0
 11 12  1  0  0  0  0
 11 13  1  0  0  0  0
 11 14  1  0  0  0  0
 14 15  1  0  0  0  0
 14 16  1  0  0  0  0
 14 17  1  0  0  0  0
 17 18  1  0  0  0  0
 17 19  1  0  0  0  0
 17 20  1  0  0  0  0
M  END
> <VM2 Rank>
21

> <Conf_Id>
272

> <Probability>
0.18

> <Sum Probability>
99.68

> <Delta G>
2.586

> <G>
56.523

> <E>
33.314

> <-TS>
23.209

> <U+W>
17.218

> <U>
72.122

> <W>
-54.904

> <W(PB)>
-56.725

> <W(SA)>
1.821

> <Valence>
3.197

> <Coulomb>
69.115

> <VdW>
-0.190

> <VdW6>
-5.585

> <VdW12>
5.395

> <Bond>
0.177

> <Angle>
1.207

> <Pdih>
1.813

> <Idih>
0.000

> <Tether>
0.000

$$$$
VeraChem MOL file


 20 19  0  0  0  0  0  0  0  0999 V2000     
   19.5891   19.9793   20.2743 C   0  0  0  0  0  0  0  0  0  0  0  0
   19.3532   20.3736   19.2773 H   0  0  0  0  0  0  0  0  0  0  0  0
   18.6444   19.9190   20.8266 H   0  0  0  0  0  0  0  0  0  0  0  0
   20.2459   20.7047   20.7721 H   0  0  0  0  0  0  0  0  0  0  0  0
   20.2681   18.5957   20.1556 C   0  0  0  0  0  0  0  0  0  0  0  0
   21.0711   18.6643   19.4082 H   0  0  0  0  0  0  0  0  0  0  0  0
   19.5477   17.8656   19.7604 H   0  0  0  0  0  0  0  0  0  0  0  0
   20.8790   18.0650   21.4777 C   0  0  0  0  0  0  0  0  0  0  0  0
   21.4099   17.1310   21.2515 H   0  0  0  0  0  0  0  0  0  0  0  0
   21.6440   18.7590   21.8478 H   0  0  0  0  0  0  0  0  0  0  0  0
   19.8452   17.7575   22.5860 C   0  0  0  0  0  0  0  0  0  0  0  0
   20.2992   17.0951   23.3274 H   0  0  0  0  0  0  0  0  0  0  0  0
   18.9955   17.2305   22.1447 H   0  0  0  0  0  0  0  0  0  0  0  0
   19.3064   18.9631   23.3400 N   0  3  0  0  0  0  0  0  0  0  0  0
   18.4973   18.6782   23.9140 H   0  0  0  0  0  0  0  0  0  0  0  0
   18.9362   19.6579   22.6766 H   0  0  0  0  0  0  0  0  0  0  0  0
   20.3782   19.5835   24.2294 C   0  0  0  0  0  0  0  0  0  0  0  0
   20.7420   18.8306   24.9319 H   0  0  0  0  0  0  0  0  0  0  0  0
   21.2028   19.9404   23.6095 H   0  0  0  0  0  0  0  0  0  0  0  0
   19.9451   20.4213   24.7801 H   0  0  0  0  0  0  0  0  0  0  0  0
  1  2  1  0  0  0  0
  1  3  1  0  0  0  0
  1  4  1  0  0  0  0
  1  5  1  0  0  0  0
  5  6  1  0  0  0  0
  5  7  1  0  0  0  0
  5  8  1  0  0  0  0
  8  9  1  0  0  0  0
  8 10  1  0  0  0  0
  8 11  1  0  0  0  0
 11 12  1  0  0  0  0
 11 13  1  0  0  0  0
 11 14  1  0  0  0  0
 14 15  1  0  0  0  0
 14 16  1  0  0  0  0
 14 17  1  0  0  0  0
 17 18  1  0  0  0  0
 17 19  1  0  0  0  0
 17 20  1  0  0  0  0
M  END
> <VM2 Rank>
22

> <Conf_Id>
220

> <Probability>
0.09

> <Sum Probability>
99.77

> <Delta G>
3.015

> <G>
56.952

> <E>
34.176

> <-TS>
22.776

> <U+W>
18.080

> <U>
72.490

> <W>
-54.411

> <W(PB)>
-56.270

> <W(SA)>
1.860

> <Valence>
2.738

> <Coulomb>
69.795

> <VdW>
-0.043

> <VdW6>
-5.333

> <VdW12>
5.290

> <Bond>
0.182

> <Angle>
1.135

> <Pdih>
1.422

> <Idih>
0.000

> <Tether>
0.000

$$$$
VeraChem MOL file


 20 19  0  0  0  0  0  0  0  0999 V2000     
   18.9668   19.3618   20.2481 C   0  0  0  0  0  0  0  0  0  0  0  0
   18.2163   18.6912   20.6867 H   0  0  0  0  0  0  0  0  0  0  0  0
   19.0103   20.2820   20.8420 H   0  0  0  0  0  0  0  0  0  0  0  0
   18.6167   19.6430   19.2464 H   0  0  0  0  0  0  0  0  0  0  0  0
   20.3493   18.6762   20.1590 C   0  0  0  0  0  0  0  0  0  0  0  0
   21.1005   19.4060   19.8256 H   0  0  0  0  0  0  0  0  0  0  0  0
   20.3066   17.9059   19.3761 H   0  0  0  0  0  0  0  0  0  0  0  0
   20.8192   18.0058   21.4752 C   0  0  0  0  0  0  0  0  0  0  0  0
   20.1048   17.2320   21.7832 H   0  0  0  0  0  0  0  0  0  0  0  0
   21.7582   17.4765   21.2661 H   0  0  0  0  0  0  0  0  0  0  0  0
   21.0870   18.9893   22.6382 C   0  0  0  0  0  0  0  0  0  0  0  0
   21.6381   19.8521   22.2556 H   0  0  0  0  0  0  0  0  0  0  0  0
   21.7141   18.4988   23.3868 H   0  0  0  0  0  0  0  0  0  0  0  0
   19.8544   19.5068   23.3630 N   0  3  0  0  0  0  0  0  0  0  0  0
   19.1909   19.9105   22.6873 H   0  0  0  0  0  0  0  0  0  0  0  0
   20.1204   20.2885   23.9821 H   0  0  0  0  0  0  0  0  0  0  0  0
   19.1894   18.4041   24.1795 C   0  0  0  0  0  0  0  0  0  0  0  0
   19.9093   18.0047   24.8971 H   0  0  0  0  0  0  0  0  0  0  0  0
   18.3321   18.8212   24.7124 H   0  0  0  0  0  0  0  0  0  0  0  0
   18.8533   17.6093   23.5110 H   0  0  0  0  0  0  0  0  0  0  0  0
  1  2  1  0  0  0  0
  1  3  1  0  0  0  0
  1  4  1  0  0  0  0
  1  5  1  0  0  0  0
  5  6  1  0  0  0  0
  5  7  1  0  0  0  0
  5  8  1  0  0  0  0
  8  9  1  0  0  0  0
  8 10  1  0  0  0  0
  8 11  1  0  0  0  0
 11 12  1  0  0  0  0
 11 13  1  0  0  0  0
 11 14  1  0  0  0  0
 14 15  1  0  0  0  0
 14 16  1  0  0  0  0
 14 17  1  0  0  0  0
 17 18  1  0  0  0  0
 17 19  1  0  0  0  0
 17 20  1  0  0  0  0
M  END
> <VM2 Rank>
23

> <Conf_Id>
59

> <Probability>
0.08

> <Sum Probability>
99.85

> <Delta G>
3.074

> <G>
57.010

> <E>
34.235

> <-TS>
22.775

> <U+W>
18.138

> <U>
72.490

> <W>
-54.352

> <W(PB)>
-56.200

> <W(SA)>
1.848

> <Valence>
2.738

> <Coulomb>
69.795

> <VdW>
-0.043

> <VdW6>
-5.333

> <VdW12>
5.290

> <Bond>
0.182

> <Angle>
1.135

> <Pdih>
1.422

> <Idih>
0.000

> <Tether>
0.000

$$$$
VeraChem MOL file


 20 19  0  0  0  0  0  0  0  0999 V2000     
   18.9214   18.4870   20.1527 C   0  0  0  0  0  0  0  0  0  0  0  0
   18.3349   19.3961   20.3389 H   0  0  0  0  0  0  0  0  0  0  0  0
   18.5771   18.0587   19.2023 H   0  0  0  0  0  0  0  0  0  0  0  0
   18.6972   17.7526   20.9353 H   0  0  0  0  0  0  0  0  0  0  0  0
   20.4339   18.7983   20.0822 C   0  0  0  0  0  0  0  0  0  0  0  0
   20.6330   19.3624   19.1602 H   0  0  0  0  0  0  0  0  0  0  0  0
   20.9966   17.8585   19.9904 H   0  0  0  0  0  0  0  0  0  0  0  0
   20.9778   19.6156   21.2818 C   0  0  0  0  0  0  0  0  0  0  0  0
   22.0366   19.8342   21.0894 H   0  0  0  0  0  0  0  0  0  0  0  0
   20.4750   20.5901   21.3397 H   0  0  0  0  0  0  0  0  0  0  0  0
   20.8854   18.8918   22.6418 C   0  0  0  0  0  0  0  0  0  0  0  0
   21.5979   19.3442   23.3363 H   0  0  0  0  0  0  0  0  0  0  0  0
   21.1535   17.8395   22.5191 H   0  0  0  0  0  0  0  0  0  0  0  0
   19.5202   18.9664   23.2988 N   0  3  0  0  0  0  0  0  0  0  0  0
   18.8011   18.5989   22.6598 H   0  0  0  0  0  0  0  0  0  0  0  0
   19.2610   19.9506   23.4667 H   0  0  0  0  0  0  0  0  0  0  0  0
   19.5273   18.1850   24.6056 C   0  0  0  0  0  0  0  0  0  0  0  0
   19.7718   17.1407   24.3992 H   0  0  0  0  0  0  0  0  0  0  0  0
   20.2746   18.6136   25.2769 H   0  0  0  0  0  0  0  0  0  0  0  0
   18.5392   18.2477   25.0668 H   0  0  0  0  0  0  0  0  0  0  0  0
  1  2  1  0  0  0  0
  1  3  1  0  0  0  0
  1  4  1  0  0  0  0
  1  5  1  0  0  0  0
  5  6  1  0  0  0  0
  5  7  1  0  0  0  0
  5  8  1  0  0  0  0
  8  9  1  0  0  0  0
  8 10  1  0  0  0  0
  8 11  1  0  0  0  0
 11 12  1  0  0  0  0
 11 13  1  0  0  0  0
 11 14  1  0  0  0  0
 14 15  1  0  0  0  0
 14 16  1  0  0  0  0
 14 17  1  0  0  0  0
 17 18  1  0  0  0  0
 17 19  1  0  0  0  0
 17 20  1  0  0  0  0
M  END
> <VM2 Rank>
24

> <Conf_Id>
56

> <Probability>
0.08

> <Sum Probability>
99.93

> <Delta G>
3.081

> <G>
57.017

> <E>
34.322

> <-TS>
22.695

> <U+W>
18.226

> <U>
72.042

> <W>
-53.816

> <W(PB)>
-55.689

> <W(SA)>
1.873

> <Valence>
2.428

> <Coulomb>
69.829

> <VdW>
-0.215

> <VdW6>
-4.563

> <VdW12>
4.348

> <Bond>
0.137

> <Angle>
0.936

> <Pdih>
1.356

> <Idih>
0.000

> <Tether>
0.000

$$$$
VeraChem MOL file


 20 19  0  0  0  0  0  0  0  0999 V2000     
   20.4691   20.0203   20.2177 C   0  0  0  0  0  0  0  0  0  0  0  0
   20.9399   20.3998   19.3015 H   0  0  0  0  0  0  0  0  0  0  0  0
   19.5580   20.6078   20.3907 H   0  0  0  0  0  0  0  0  0  0  0  0
   21.1718   20.2037   21.0391 H   0  0  0  0  0  0  0  0  0  0  0  0
   20.1482   18.5154   20.0702 C   0  0  0  0  0  0  0  0  0  0  0  0
   21.0861   17.9474   19.9939 H   0  0  0  0  0  0  0  0  0  0  0  0
   19.6217   18.3610   19.1178 H   0  0  0  0  0  0  0  0  0  0  0  0
   19.2764   17.9300   21.2104 C   0  0  0  0  0  0  0  0  0  0  0  0
   18.3046   18.4397   21.2487 H   0  0  0  0  0  0  0  0  0  0  0  0
   19.0573   16.8825   20.9645 H   0  0  0  0  0  0  0  0  0  0  0  0
   19.9429   17.9579   22.6023 C   0  0  0  0  0  0  0  0  0  0  0  0
   20.9973   17.6848   22.5124 H   0  0  0  0  0  0  0  0  0  0  0  0
   19.4558   17.2215   23.2464 H   0  0  0  0  0  0  0  0  0  0  0  0
   19.8519   19.2951   23.3128 N   0  3  0  0  0  0  0  0  0  0  0  0
   18.8637   19.5569   23.4502 H   0  0  0  0  0  0  0  0  0  0  0  0
   20.2519   20.0367   22.7207 H   0  0  0  0  0  0  0  0  0  0  0  0
   20.5774   19.2254   24.6496 C   0  0  0  0  0  0  0  0  0  0  0  0
   21.6274   18.9793   24.4769 H   0  0  0  0  0  0  0  0  0  0  0  0
   20.5035   20.1939   25.1491 H   0  0  0  0  0  0  0  0  0  0  0  0
   20.1147   18.4550   25.2702 H   0  0  0  0  0  0  0  0  0  0  0  0
  1  2  1  0  0  0  0
  1  3  1  0  0  0  0
  1  4  1  0  0  0  0
  1  5  1  0  0  0  0
  5  6  1  0  0  0  0
  5  7  1  0  0  0  0
  5  8  1  0  0  0  0
  8  9  1  0  0  0  0
  8 10  1  0  0  0  0
  8 11  1  0  0  0  0
 11 12  1  0  0  0  0
 11 13  1  0  0  0  0
 11 14  1  0  0  0  0
 14 15  1  0  0  0  0
 14 16  1  0  0  0  0
 14 17  1  0  0  0  0
 17 18  1  0  0  0  0
 17 19  1  0  0  0  0
 17 20  1  0  0  0  0
M  END
> <VM2 Rank>
25

> <Conf_Id>
5

> <Probability>
0.07

> <Sum Probability>
100.00

> <Delta G>
3.144

> <G>
57.081

> <E>
34.385

> <-TS>
22.696

> <U+W>
18.289

> <U>
72.042

> <W>
-53.753

> <W(PB)>
-55.644

> <W(SA)>
1.891

> <Valence>
2.428

> <Coulomb>
69.829

> <VdW>
-0.215

> <VdW6>
-4.563

> <VdW12>
4.348

> <Bond>
0.137

> <Angle>
0.936

> <Pdih>
1.356

> <Idih>
0.000

> <Tether>
0.000

$$$$
VeraChem MOL file


 20 19  0  0  0  0  0  0  0  0999 V2000     
   19.0666   18.1606   20.2301 C   0  0  0  0  0  0  0  0  0  0  0  0
   18.5457   18.9473   19.6690 H   0  0  0  0  0  0  0  0  0  0  0  0
   19.0136   17.2395   19.6355 H   0  0  0  0  0  0  0  0  0  0  0  0
   18.5128   17.9868   21.1586 H   0  0  0  0  0  0  0  0  0  0  0  0
   20.5407   18.5517   20.4905 C   0  0  0  0  0  0  0  0  0  0  0  0
   21.0308   18.6877   19.5161 H   0  0  0  0  0  0  0  0  0  0  0  0
   21.0772   17.7297   20.9842 H   0  0  0  0  0  0  0  0  0  0  0  0
   20.6966   19.8603   21.3063 C   0  0  0  0  0  0  0  0  0  0  0  0
   21.6318   20.3455   20.9969 H   0  0  0  0  0  0  0  0  0  0  0  0
   19.8972   20.5677   21.0493 H   0  0  0  0  0  0  0  0  0  0  0  0
   20.7685   19.6783   22.8412 C   0  0  0  0  0  0  0  0  0  0  0  0
   20.9346   20.6619   23.2879 H   0  0  0  0  0  0  0  0  0  0  0  0
   21.6219   19.0492   23.1063 H   0  0  0  0  0  0  0  0  0  0  0  0
   19.5314   19.1010   23.5076 N   0  3  0  0  0  0  0  0  0  0  0  0
   18.6881   19.3477   22.9693 H   0  0  0  0  0  0  0  0  0  0  0  0
   19.3996   19.5449   24.4297 H   0  0  0  0  0  0  0  0  0  0  0  0
   19.6621   17.5921   23.6873 C   0  0  0  0  0  0  0  0  0  0  0  0
   18.7605   17.2097   24.1708 H   0  0  0  0  0  0  0  0  0  0  0  0
   19.7862   17.1176   22.7125 H   0  0  0  0  0  0  0  0  0  0  0  0
   20.5320   17.3801   24.3126 H   0  0  0  0  0  0  0  0  0  0  0  0
  1  2  1  0  0  0  0
  1  3  1  0  0  0  0
  1  4  1  0  0  0  0
  1  5  1  0  0  0  0
  5  6  1  0  0  0  0
  5  7  1  0  0  0  0
  5  8  1  0  0  0  0
  8  9  1  0  0  0  0
  8 10  1  0  0  0  0
  8 11  1  0  0  0  0
 11 12  1  0  0  0  0
 11 13  1  0  0  0  0
 11 14  1  0  0  0  0
 14 15  1  0  0  0  0
 14 16  1  0  0  0  0
 14 17  1  0  0  0  0
 17 18  1  0  0  0  0
 17 19  1  0  0  0  0
 17 20  1  0  0  0  0
M  END
> <VM2 Rank>
26

> <Conf_Id>
251

> <Probability>
0.00

> <Sum Probability>
100.00

> <Delta G>
4.837

> <G>
58.774

> <E>
35.631

> <-TS>
23.143

> <U+W>
19.535

> <U>
74.442

> <W>
-54.908

> <W(PB)>
-56.715

> <W(SA)>
1.807

> <Valence>
5.113

> <Coulomb>
69.460

> <VdW>
-0.131

> <VdW6>
-5.678

> <VdW12>
5.547

> <Bond>
0.188

> <Angle>
1.349

> <Pdih>
3.576

> <Idih>
0.000

> <Tether>
0.000

$$$$
