@<TRIPOS>MOLECULE
MOL
  126   132     1     0     0
SMALL
gas


@<TRIPOS>ATOM
      1 C1          16.1220    15.1500    21.1390 c3         1 MOL       0.186719
      2 H1          15.0460    14.9660    20.9550 h2         1 MOL       0.095315
      3 O1          16.3700    16.5410    21.5360 os         1 MOL      -0.340972
      4 C2          16.5820    14.2430    22.2760 c3         1 MOL       0.133273
      5 H2          16.3840    13.1970    22.0230 h1         1 MOL       0.068376
      6 O2          15.8760    14.5980    23.4760 oh         1 MOL      -0.384992
      7 H3          15.5200    15.4950    23.3890 ho         1 MOL       0.210855
      8 C3          18.0560    14.4480    22.5530 c3         1 MOL       0.113742
      9 H4          18.2150    15.4640    22.9250 h1         1 MOL       0.065913
     10 O3          18.4310    13.4850    23.5510 oh         1 MOL      -0.387390
     11 H5          17.6860    13.4180    24.1630 ho         1 MOL       0.210729
     12 C4          18.8890    14.2240    21.2980 c3         1 MOL       0.117858
     13 H6          18.8750    13.1610    21.0440 h1         1 MOL       0.066225
     14 C5          18.3690    15.0590    20.1130 c3         1 MOL       0.112687
     15 H7          18.5050    16.1120    20.3700 h1         1 MOL       0.065815
     16 O4          16.9100    14.8180    19.9380 os         1 MOL      -0.341376
     17 C6          19.0640    14.8630    18.7580 c3         1 MOL       0.072138
     18 H8          19.8750    15.5880    18.6530 h1         1 MOL       0.059240
     19 H9          18.3550    15.0290    17.9440 h1         1 MOL       0.059240
     20 O5          19.6140    13.5440    18.6530 oh         1 MOL      -0.393576
     21 H10         20.5170    13.5690    18.9960 ho         1 MOL       0.210178
     22 C7          14.7070    20.3340    21.1420 c3         1 MOL       0.186719
     23 H11         14.0110    21.1810    20.9810 h2         1 MOL       0.095315
     24 O6          16.0320    20.8040    21.5670 os         1 MOL      -0.340972
     25 C8          14.1400    19.4450    22.2440 c3         1 MOL       0.133273
     26 H12         13.1390    19.1030    21.9700 h1         1 MOL       0.068376
     27 O7          14.0850    20.1920    23.4700 oh         1 MOL      -0.384992
     28 H13         14.6840    20.9530    23.4150 ho         1 MOL       0.210855
     29 C9          15.0550    18.2620    22.4880 c3         1 MOL       0.113742
     30 H14         16.0110    18.6190    22.8800 h1         1 MOL       0.065913
     31 O8          14.4000    17.4200    23.4520 oh         1 MOL      -0.387390
     32 H15         13.9630    18.0120    24.0810 ho         1 MOL       0.210729
     33 C10         15.2870    17.4730    21.2070 c3         1 MOL       0.117858
     34 H16         14.3640    16.9620    20.9270 h1         1 MOL       0.066225
     35 C11         15.7610    18.3820    20.0560 c3         1 MOL       0.112687
     36 H17         16.7380    18.7820    20.3360 h1         1 MOL       0.065815
     37 O9          14.8230    19.5290    19.9130 os         1 MOL      -0.341376
     38 C12         15.9500    17.7290    18.6800 c3         1 MOL       0.072138
     39 H18         16.9830    17.3930    18.5710 h1         1 MOL       0.059240
     40 H19         15.7450    18.4540    17.8880 h1         1 MOL       0.059240
     41 O10         15.0850    16.5970    18.5280 oh         1 MOL      -0.393576
     42 H20         15.5550    15.8150    18.8490 ho         1 MOL       0.210178
     43 C13         18.4850    24.1540    21.3100 c3         1 MOL       0.186719
     44 H21         18.8700    25.1840    21.1880 h2         1 MOL       0.095315
     45 O11         19.5500    23.2270    21.7120 os         1 MOL      -0.340972
     46 C14         17.4220    24.1600    22.4030 c3         1 MOL       0.133273
     47 H22         16.6270    24.8640    22.1470 h1         1 MOL       0.068376
     48 O12         18.0290    24.5400    23.6490 oh         1 MOL      -0.384992
     49 H23         18.9880    24.4040    23.5970 ho         1 MOL       0.210855
     50 C15         16.8540    22.7690    22.5940 c3         1 MOL       0.113742
     51 H24         17.6370    22.1070    22.9710 h1         1 MOL       0.065913
     52 O13         15.7900    22.8810    23.5540 oh         1 MOL      -0.387390
     53 H25         16.0780    23.5330    24.2080 ho         1 MOL       0.210729
     54 C16         16.2990    22.2170    21.2890 c3         1 MOL       0.117858
     55 H26         15.3960    22.7710    21.0190 h1         1 MOL       0.066225
     56 C17         17.3320    22.3030    20.1490 c3         1 MOL       0.112687
     57 H27         18.1650    21.6470    20.4140 h1         1 MOL       0.065815
     58 O14         17.8580    23.6910    20.0580 os         1 MOL      -0.341376
     59 C18         16.8750    21.8590    18.7530 c3         1 MOL       0.072138
     60 H28         17.1020    20.8010    18.6090 h1         1 MOL       0.059240
     61 H29         17.4050    22.4260    17.9850 h1         1 MOL       0.059240
     62 O15         15.4610    22.0470    18.5940 oh         1 MOL      -0.393576
     63 H30         15.0200    21.2390    18.8840 ho         1 MOL       0.210178
     64 C19         23.6810    22.7880    21.4760 c3         1 MOL       0.186719
     65 H31         24.7680    22.9740    21.3700 h2         1 MOL       0.095315
     66 O16         23.4090    21.3880    21.8260 os         1 MOL      -0.340972
     67 C20         23.1450    23.6730    22.5960 c3         1 MOL       0.133273
     68 H32         23.3600    24.7230    22.3780 h1         1 MOL       0.068376
     69 O17         23.7670    23.2940    23.8340 oh         1 MOL      -0.384992
     70 H33         24.1300    22.3980    23.7550 ho         1 MOL       0.210855
     71 C21         21.6540    23.4630    22.7670 c3         1 MOL       0.113742
     72 H34         21.4710    22.4390    23.1070 h1         1 MOL       0.065913
     73 O18         21.2120    24.4050    23.7560 oh         1 MOL      -0.387390
     74 H35         21.9130    24.4600    24.4190 ho         1 MOL       0.210729
     75 C22         20.9120    23.7120    21.4630 c3         1 MOL       0.117858
     76 H36         20.9410    24.7790    21.2310 h1         1 MOL       0.066225
     77 C23         21.5120    22.9000    20.3000 c3         1 MOL       0.112687
     78 H37         21.3600    21.8430    20.5260 h1         1 MOL       0.065815
     79 O19         22.9770    23.1430    20.2300 os         1 MOL      -0.341376
     80 C24         20.9120    23.1240    18.9050 c3         1 MOL       0.072138
     81 H38         20.1100    22.4030    18.7280 h1         1 MOL       0.059240
     82 H39         21.6740    22.9740    18.1380 h1         1 MOL       0.059240
     83 O20         20.3690    24.4450    18.7870 oh         1 MOL      -0.393576
     84 H40         19.4440    24.4140    19.0680 ho         1 MOL       0.210178
     85 C25         25.0990    17.6030    21.4720 c3         1 MOL       0.186719
     86 H41         25.8030    16.7590    21.3420 h2         1 MOL       0.095315
     87 O21         23.7470    17.1270    21.7950 os         1 MOL      -0.340972
     88 C26         25.5870    18.4690    22.6280 c3         1 MOL       0.133273
     89 H42         26.6050    18.8170    22.4300 h1         1 MOL       0.068376
     90 O22         25.5580    17.6980    23.8400 oh         1 MOL      -0.384992
     91 H43         24.9650    16.9400    23.7280 ho         1 MOL       0.210855
     92 C27         24.6570    19.6490    22.8320 c3         1 MOL       0.113742
     93 H44         23.6770    19.2840    23.1510 h1         1 MOL       0.065913
     94 O23         25.2440    20.4690    23.8560 oh         1 MOL      -0.387390
     95 H45         25.6360    19.8660    24.5010 ho         1 MOL       0.210729
     96 C28         24.5120    20.4630    21.5540 c3         1 MOL       0.117858
     97 H46         25.4530    20.9790    21.3490 h1         1 MOL       0.066225
     98 C29         24.1190    19.5780    20.3560 c3         1 MOL       0.112687
     99 H47         23.1270    19.1730    20.5600 h1         1 MOL       0.065815
    100 O24         25.0640    18.4340    20.2540 os         1 MOL      -0.341376
    101 C30         24.0260    20.2580    18.9830 c3         1 MOL       0.072138
    102 H48         23.0000    20.5960    18.8100 h1         1 MOL       0.059240
    103 H49         24.2840    19.5500    18.1930 h1         1 MOL       0.059240
    104 O25         24.8980    21.3930    18.9130 oh         1 MOL      -0.393576
    105 H50         24.4070    22.1670    19.2170 ho         1 MOL       0.210178
    106 C31         21.3190    13.7840    21.3040 c3         1 MOL       0.186719
    107 H51         20.9440    12.7550    21.1340 h2         1 MOL       0.095315
    108 O26         20.2290    14.7030    21.6500 os         1 MOL      -0.340972
    109 C32         22.3050    13.7550    22.4670 c3         1 MOL       0.133273
    110 H52         23.1160    13.0550    22.2520 h1         1 MOL       0.068376
    111 O27         21.6130    13.3510    23.6600 oh         1 MOL      -0.384992
    112 H53         20.6600    13.4880    23.5450 ho         1 MOL       0.210855
    113 C33         22.8580    15.1410    22.7250 c3         1 MOL       0.113742
    114 H54         22.0490    15.7960    23.0600 h1         1 MOL       0.065913
    115 O28         23.8540    15.0090    23.7520 oh         1 MOL      -0.387390
    116 H55         23.5210    14.3450    24.3720 ho         1 MOL       0.210729
    117 C34         23.5000    15.7190    21.4710 c3         1 MOL       0.117858
    118 H56         24.4210    15.1690    21.2540 h1         1 MOL       0.066225
    119 C35         22.5490    15.6570    20.2630 c3         1 MOL       0.112687
    120 H57         21.6980    16.3070    20.4820 h1         1 MOL       0.065815
    121 O29         22.0320    14.2710    20.1080 os         1 MOL      -0.341376
    122 C36         23.1010    16.1280    18.9100 c3         1 MOL       0.072138
    123 H58         22.8810    17.1900    18.7720 h1         1 MOL       0.059240
    124 H59         22.6230    15.5770    18.0960 h1         1 MOL       0.059240
    125 O30         24.5200    15.9420    18.8450 oh         1 MOL      -0.393576
    126 H60         24.9420    16.7440    19.1810 ho         1 MOL       0.210178
@<TRIPOS>BOND
     1     1     2 1   
     2     1     3 1   
     3     1     4 1   
     4     1    16 1   
     5     3    33 1   
     6     4     5 1   
     7     4     6 1   
     8     4     8 1   
     9     6     7 1   
    10     8     9 1   
    11     8    10 1   
    12     8    12 1   
    13    10    11 1   
    14    12    13 1   
    15    12    14 1   
    16    12   108 1   
    17    14    15 1   
    18    14    16 1   
    19    14    17 1   
    20    17    18 1   
    21    17    19 1   
    22    17    20 1   
    23    20    21 1   
    24    22    23 1   
    25    22    24 1   
    26    22    25 1   
    27    22    37 1   
    28    24    54 1   
    29    25    26 1   
    30    25    27 1   
    31    25    29 1   
    32    27    28 1   
    33    29    30 1   
    34    29    31 1   
    35    29    33 1   
    36    31    32 1   
    37    33    34 1   
    38    33    35 1   
    39    35    36 1   
    40    35    37 1   
    41    35    38 1   
    42    38    39 1   
    43    38    40 1   
    44    38    41 1   
    45    41    42 1   
    46    43    44 1   
    47    43    45 1   
    48    43    46 1   
    49    43    58 1   
    50    45    75 1   
    51    46    47 1   
    52    46    48 1   
    53    46    50 1   
    54    48    49 1   
    55    50    51 1   
    56    50    52 1   
    57    50    54 1   
    58    52    53 1   
    59    54    55 1   
    60    54    56 1   
    61    56    57 1   
    62    56    58 1   
    63    56    59 1   
    64    59    60 1   
    65    59    61 1   
    66    59    62 1   
    67    62    63 1   
    68    64    65 1   
    69    64    66 1   
    70    64    67 1   
    71    64    79 1   
    72    66    96 1   
    73    67    68 1   
    74    67    69 1   
    75    67    71 1   
    76    69    70 1   
    77    71    72 1   
    78    71    73 1   
    79    71    75 1   
    80    73    74 1   
    81    75    76 1   
    82    75    77 1   
    83    77    78 1   
    84    77    79 1   
    85    77    80 1   
    86    80    81 1   
    87    80    82 1   
    88    80    83 1   
    89    83    84 1   
    90    85    86 1   
    91    85    87 1   
    92    85    88 1   
    93    85   100 1   
    94    87   117 1   
    95    88    89 1   
    96    88    90 1   
    97    88    92 1   
    98    90    91 1   
    99    92    93 1   
   100    92    94 1   
   101    92    96 1   
   102    94    95 1   
   103    96    97 1   
   104    96    98 1   
   105    98    99 1   
   106    98   100 1   
   107    98   101 1   
   108   101   102 1   
   109   101   103 1   
   110   101   104 1   
   111   104   105 1   
   112   106   107 1   
   113   106   108 1   
   114   106   109 1   
   115   106   121 1   
   116   109   110 1   
   117   109   111 1   
   118   109   113 1   
   119   111   112 1   
   120   113   114 1   
   121   113   115 1   
   122   113   117 1   
   123   115   116 1   
   124   117   118 1   
   125   117   119 1   
   126   119   120 1   
   127   119   121 1   
   128   119   122 1   
   129   122   123 1   
   130   122   124 1   
   131   122   125 1   
   132   125   126 1   
@<TRIPOS>SUBSTRUCTURE
     1 MOL         1 TEMP              0 ****  ****    0 ROOT
