@<TRIPOS>MOLECULE
CD_fast_vm2.mol2 : feprocess host conformer 1
         126         132           1
SMALL
USER_CHARGES
 
@<TRIPOS>ATOM
       1    C1      16.136050   15.151549   21.122513 C.3        1 MOL1         0.2972
       2    H1      15.078282   14.973526   20.890696 H          1 MOL1         0.0751
       3    O1      16.371949   16.514014   21.526342 O.3        1 MOL1        -0.3740
       4    C2      16.575113   14.237108   22.293063 C.3        1 MOL1         0.1003
       5    H2      16.404692   13.197329   21.984908 H          1 MOL1         0.0783
       6    O2      15.795721   14.520368   23.466679 O.3        1 MOL1        -0.5519
       7    H3      15.587520   15.487679   23.447397 H          1 MOL1         0.3769
       8    C3      18.083551   14.408017   22.591467 C.3        1 MOL1         0.1053
       9    H4      18.242924   15.420236   22.987956 H          1 MOL1         0.0783
      10    O3      18.496101   13.437349   23.560116 O.3        1 MOL1        -0.5519
      11    H5      17.810665   13.472233   24.264285 H          1 MOL1         0.3769
      12    C4      18.924353   14.254819   21.301752 C.3        1 MOL1         0.1018
      13    H6      18.898308   13.200136   20.997527 H          1 MOL1         0.0783
      14    C5      18.378991   15.143884   20.148442 C.3        1 MOL1         0.1043
      15    H7      18.514515   16.195004   20.434876 H          1 MOL1         0.0783
      16    O4      16.965000   14.872227   19.973351 O.3        1 MOL1        -0.3740
      17    C6      19.085249   14.956912   18.781429 C.3        1 MOL1         0.0138
      18    H8      19.972197   15.602419   18.756793 H          1 MOL1         0.0794
      19    H9      18.412338   15.310549   17.989016 H          1 MOL1         0.0794
      20    O5      19.472278   13.602689   18.526206 O.3        1 MOL1        -0.5486
      21    H10     20.379015   13.496440   18.892943 H          1 MOL1         0.3769
      22    C7      14.714326   20.325249   21.125321 C.3        1 MOL1         0.2972
      23    H11     14.032682   21.159554   20.916511 H          1 MOL1         0.0751
      24    O6      16.008407   20.788432   21.556434 O.3        1 MOL1        -0.3740
      25    C8      14.132605   19.447496   22.261244 C.3        1 MOL1         0.1003
      26    H12     13.149823   19.085712   21.932009 H          1 MOL1         0.0783
      27    O7      13.977710   20.222876   23.461184 O.3        1 MOL1        -0.5519
      28    H13     14.710898   20.887516   23.471067 H          1 MOL1         0.3769
      29    C9      15.033110   18.217352   22.524813 C.3        1 MOL1         0.1053
      30    H14     15.985762   18.571851   22.941916 H          1 MOL1         0.0783
      31    O8      14.391159   17.341432   23.458267 O.3        1 MOL1        -0.5519
      32    H15     14.072278   17.927590   24.180503 H          1 MOL1         0.3769
      33    C10     15.332291   17.457891   21.210472 C.3        1 MOL1         0.1018
      34    H16     14.408833   16.963617   20.881071 H          1 MOL1         0.0783
      35    C11     15.838710   18.414334   20.093899 C.3        1 MOL1         0.1043
      36    H17     16.814024   18.812729   20.402618 H          1 MOL1         0.0783
      37    O9      14.897232   19.508110   19.948638 O.3        1 MOL1        -0.3740
      38    C12     16.041988   17.757088   18.704946 C.3        1 MOL1         0.0138
      39    H18     17.044985   17.313282   18.673396 H          1 MOL1         0.0794
      40    H19     16.017941   18.543656   17.939099 H          1 MOL1         0.0794
      41    O10     15.065647   16.753822   18.406506 O.3        1 MOL1        -0.5486
      42    H20     15.424432   15.903420   18.747168 H          1 MOL1         0.3769
      43    C13     18.481133   24.142553   21.292464 C.3        1 MOL1         0.2972
      44    H21     18.863883   25.156798   21.121845 H          1 MOL1         0.0751
      45    O11     19.526172   23.239580   21.701817 O.3        1 MOL1        -0.3740
      46    C14     17.420223   24.167769   22.420740 C.3        1 MOL1         0.1003
      47    H22     16.617911   24.848589   22.107812 H          1 MOL1         0.0783
      48    O12     18.003423   24.648161   23.643100 O.3        1 MOL1        -0.5519
      49    H23     18.945637   24.345538   23.650888 H          1 MOL1         0.3769
      50    C15     16.803914   22.764297   22.630670 C.3        1 MOL1         0.1053
      51    H24     17.584068   22.102879   23.032013 H          1 MOL1         0.0783
      52    O13     15.716190   22.849533   23.558175 O.3        1 MOL1        -0.5519
      53    H25     16.057639   23.393688   24.302621 H          1 MOL1         0.3769
      54    C16     16.307744   22.170948   21.290694 C.3        1 MOL1         0.1018
      55    H26     15.420470   22.734200   20.972766 H          1 MOL1         0.0783
      56    C17     17.398926   22.249553   20.185653 C.3        1 MOL1         0.1043
      57    H27     18.229377   21.594237   20.479208 H          1 MOL1         0.0783
      58    O14     17.875617   23.616207   20.091604 O.3        1 MOL1        -0.3740
      59    C18     16.943891   21.792843   18.776097 C.3        1 MOL1         0.0138
      60    H28     17.062238   20.704121   18.707978 H          1 MOL1         0.0794
      61    H29     17.619334   22.233489   18.030848 H          1 MOL1         0.0794
      62    O15     15.589220   22.146086   18.477875 O.3        1 MOL1        -0.5486
      63    H30     15.029807   21.398658   18.788323 H          1 MOL1         0.3769
      64    C19     23.669733   22.786309   21.458081 C.3        1 MOL1         0.2972
      65    H31     24.740809   22.968201   21.303117 H          1 MOL1         0.0751
      66    O16     23.407570   21.416206   21.817422 O.3        1 MOL1        -0.3740
      67    C20     23.150632   23.677470   22.613735 C.3        1 MOL1         0.1003
      68    H32     23.341116   24.723084   22.338868 H          1 MOL1         0.0783
      69    O17     23.847716   23.370267   23.832243 O.3        1 MOL1        -0.5519
      70    H33     24.057429   22.403395   23.807974 H          1 MOL1         0.3769
      71    C21     21.625371   23.501670   22.804286 C.3        1 MOL1         0.1053
      72    H34     21.439818   22.481837   23.168568 H          1 MOL1         0.0783
      73    O18     21.146559   24.453063   23.761503 O.3        1 MOL1        -0.5519
      74    H35     21.782000   24.403633   24.510277 H          1 MOL1         0.3769
      75    C22     20.875089   23.681203   21.463155 C.3        1 MOL1         0.1018
      76    H36     20.921256   24.741739   21.182588 H          1 MOL1         0.0783
      77    C23     21.499036   22.814998   20.332509 C.3        1 MOL1         0.1043
      78    H37     21.344865   21.758456   20.587878 H          1 MOL1         0.0783
      79    O19     22.921531   23.089122   20.260479 O.3        1 MOL1        -0.3740
      80    C24     20.888272   23.029753   18.924201 C.3        1 MOL1         0.0138
      81    H38     20.005551   22.385488   18.825767 H          1 MOL1         0.0794
      82    H39     21.614292   22.691555   18.172998 H          1 MOL1         0.0794
      83    O20     20.518786   24.389078   18.670104 O.3        1 MOL1        -0.5486
      84    H40     19.588908   24.488603   18.975681 H          1 MOL1         0.3769
      85    C25     25.091454   17.612608   21.455164 C.3        1 MOL1         0.2972
      86    H41     25.786408   16.782175   21.277048 H          1 MOL1         0.0751
      87    O21     23.771134   17.141790   21.787016 O.3        1 MOL1        -0.3740
      88    C26     25.593157   18.467092   22.645677 C.3        1 MOL1         0.1003
      89    H42     26.595986   18.834709   22.392031 H          1 MOL1         0.0783
      90    O22     25.665785   17.667787   23.837691 O.3        1 MOL1        -0.5519
      91    H43     24.934097   17.003596   23.783907 H          1 MOL1         0.3769
      92    C27     24.675825   19.692341   22.871282 C.3        1 MOL1         0.1053
      93    H44     23.697013   19.330232   23.214788 H          1 MOL1         0.0783
      94    O23     25.251527   20.548998   23.863945 O.3        1 MOL1        -0.5519
      95    H45     25.520444   19.948308   24.594527 H          1 MOL1         0.3769
      96    C28     24.467122   20.478114   21.554929 C.3        1 MOL1         0.1018
      97    H46     25.410687   20.978236   21.299686 H          1 MOL1         0.0783
      98    C29     24.039264   19.544516   20.387320 C.3        1 MOL1         0.1043
      99    H47     23.045322   19.140699   20.620287 H          1 MOL1         0.0783
     100    O24     24.989254   18.453218   20.285256 O.3        1 MOL1        -0.3740
     101    C30     23.931429   20.229519   19.001092 C.3        1 MOL1         0.0138
     102    H48     22.932659   20.674543   18.909582 H          1 MOL1         0.0794
     103    H49     24.008585   19.458395   18.223144 H          1 MOL1         0.0794
     104    O25     24.925264   21.237890   18.790537 O.3        1 MOL1        -0.5486
     105    H50     24.543339   22.081552   19.122694 H          1 MOL1         0.3769
     106    C31     21.324693   13.795312   21.286830 C.3        1 MOL1         0.2972
     107    H51     20.955268   12.784937   21.070098 H          1 MOL1         0.0751
     108    O26     20.253375   14.690654   21.641336 O.3        1 MOL1        -0.3740
     109    C32     22.305572   13.746846   22.484620 C.3        1 MOL1         0.1003
     110    H52     23.127959   13.071856   22.214041 H          1 MOL1         0.0783
     111    O27     21.640073   13.242551   23.654176 O.3        1 MOL1        -0.5519
     112    H53     20.699340   13.545593   23.603222 H          1 MOL1         0.3769
     113    C33     22.905035   15.145423   22.764383 C.3        1 MOL1         0.1053
     114    H54     22.098691   15.799235   23.124284 H          1 MOL1         0.0783
     115    O28     23.926502   15.040941   23.762562 O.3        1 MOL1        -0.5519
     116    H55     23.535070   14.482271   24.470773 H          1 MOL1         0.3769
     117    C34     23.491716   15.765061   21.473788 C.3        1 MOL1         0.1018
     118    H56     24.399129   15.207657   21.206411 H          1 MOL1         0.0783
     119    C35     22.479114   15.709279   20.295017 C.3        1 MOL1         0.1043
     120    H57     21.630004   16.359179   20.543826 H          1 MOL1         0.0783
     121    O29     22.010946   14.345104   20.141169 O.3        1 MOL1        -0.3740
     122    C36     23.029634   16.193719   18.929465 C.3        1 MOL1         0.0138
     123    H58     22.915515   17.283666   18.875122 H          1 MOL1         0.0794
     124    H59     22.407301   15.768510   18.130912 H          1 MOL1         0.0794
     125    O30     24.401835   15.845550   18.718053 O.3        1 MOL1        -0.5486
     126    H60     24.938086   16.586253   19.081044 H          1 MOL1         0.3769
@<TRIPOS>BOND
    1     1     2    1
    2     1     3    1
    3     1     4    1
    4     4     5    1
    5     4     6    1
    6     6     7    1
    7     4     8    1
    8     8     9    1
    9     8    10    1
   10    10    11    1
   11     8    12    1
   12    12    13    1
   13    12    14    1
   14    14    15    1
   15     1    16    1
   16    14    16    1
   17    14    17    1
   18    17    18    1
   19    17    19    1
   20    17    20    1
   21    20    21    1
   22    22    23    1
   23    22    24    1
   24    22    25    1
   25    25    26    1
   26    25    27    1
   27    27    28    1
   28    25    29    1
   29    29    30    1
   30    29    31    1
   31    31    32    1
   32     3    33    1
   33    29    33    1
   34    33    34    1
   35    33    35    1
   36    35    36    1
   37    22    37    1
   38    35    37    1
   39    35    38    1
   40    38    39    1
   41    38    40    1
   42    38    41    1
   43    41    42    1
   44    43    44    1
   45    43    45    1
   46    43    46    1
   47    46    47    1
   48    46    48    1
   49    48    49    1
   50    46    50    1
   51    50    51    1
   52    50    52    1
   53    52    53    1
   54    24    54    1
   55    50    54    1
   56    54    55    1
   57    54    56    1
   58    56    57    1
   59    43    58    1
   60    56    58    1
   61    56    59    1
   62    59    60    1
   63    59    61    1
   64    59    62    1
   65    62    63    1
   66    64    65    1
   67    64    66    1
   68    64    67    1
   69    67    68    1
   70    67    69    1
   71    69    70    1
   72    67    71    1
   73    71    72    1
   74    71    73    1
   75    73    74    1
   76    45    75    1
   77    71    75    1
   78    75    76    1
   79    75    77    1
   80    77    78    1
   81    64    79    1
   82    77    79    1
   83    77    80    1
   84    80    81    1
   85    80    82    1
   86    80    83    1
   87    83    84    1
   88    85    86    1
   89    85    87    1
   90    85    88    1
   91    88    89    1
   92    88    90    1
   93    90    91    1
   94    88    92    1
   95    92    93    1
   96    92    94    1
   97    94    95    1
   98    66    96    1
   99    92    96    1
  100    96    97    1
  101    96    98    1
  102    98    99    1
  103    85   100    1
  104    98   100    1
  105    98   101    1
  106   101   102    1
  107   101   103    1
  108   101   104    1
  109   104   105    1
  110   106   107    1
  111    12   108    1
  112   106   108    1
  113   106   109    1
  114   109   110    1
  115   109   111    1
  116   111   112    1
  117   109   113    1
  118   113   114    1
  119   113   115    1
  120   115   116    1
  121    87   117    1
  122   113   117    1
  123   117   118    1
  124   117   119    1
  125   119   120    1
  126   106   121    1
  127   119   121    1
  128   119   122    1
  129   122   123    1
  130   122   124    1
  131   122   125    1
  132   125   126    1
@<TRIPOS>SUBSTRUCTURE
       1 MOL1            1 RESIDUE      1      MOL     
@<SCITEGIC>MOL_PROPERTY
feprocess Rank
SciTegic.value.IntegerValue
1

@<SCITEGIC>MOL_PROPERTY
Conf_Id
SciTegic.value.IntegerValue
1

@<SCITEGIC>MOL_PROPERTY
Probability
SciTegic.value.DoubleValue
100.00

@<SCITEGIC>MOL_PROPERTY
G
SciTegic.value.DoubleValue
537.275

@<SCITEGIC>MOL_PROPERTY
E
SciTegic.value.DoubleValue
380.396

@<SCITEGIC>MOL_PROPERTY
-TS
SciTegic.value.DoubleValue
156.879

@<SCITEGIC>MOL_PROPERTY
U+W
SciTegic.value.DoubleValue
269.510

@<SCITEGIC>MOL_PROPERTY
U
SciTegic.value.DoubleValue
307.486

@<SCITEGIC>MOL_PROPERTY
W
SciTegic.value.DoubleValue
-37.977

@<SCITEGIC>MOL_PROPERTY
W(PB)
SciTegic.value.DoubleValue
-44.058

@<SCITEGIC>MOL_PROPERTY
W(SA)
SciTegic.value.DoubleValue
6.081

@<SCITEGIC>MOL_PROPERTY
Valence
SciTegic.value.DoubleValue
151.758

@<SCITEGIC>MOL_PROPERTY
Coulomb
SciTegic.value.DoubleValue
166.896

@<SCITEGIC>MOL_PROPERTY
VdW
SciTegic.value.DoubleValue
-11.168

@<SCITEGIC>MOL_PROPERTY
VdW6
SciTegic.value.DoubleValue
-142.338

@<SCITEGIC>MOL_PROPERTY
VdW12
SciTegic.value.DoubleValue
131.170

@<SCITEGIC>MOL_PROPERTY
Bond
SciTegic.value.DoubleValue
4.378

@<SCITEGIC>MOL_PROPERTY
Angle
SciTegic.value.DoubleValue
10.090

@<SCITEGIC>MOL_PROPERTY
Pdih
SciTegic.value.DoubleValue
137.290

@<SCITEGIC>MOL_PROPERTY
Idih
SciTegic.value.DoubleValue
0.000

@<SCITEGIC>MOL_PROPERTY
Tether
SciTegic.value.DoubleValue
0.000

