VeraChem MOL file


 20 19  0  0  0  0  0  0  0  0999 V2000     
   19.7358   18.9390   25.6479 N   0  3  0  0  0  0  0  0  0  0  0  0
   19.5332   17.9360   25.7059 H   0  0  0  0  0  0  0  0  0  0  0  0
   20.2632   19.1849   26.4922 H   0  0  0  0  0  0  0  0  0  0  0  0
   18.8387   19.4313   25.7042 H   0  0  0  0  0  0  0  0  0  0  0  0
   20.4972   19.2912   24.3858 C   0  0  0  0  0  0  0  0  0  0  0  0
   21.4511   18.7572   24.4070 H   0  0  0  0  0  0  0  0  0  0  0  0
   20.7044   20.3647   24.4051 H   0  0  0  0  0  0  0  0  0  0  0  0
   19.7326   18.9345   23.0985 C   0  0  0  0  0  0  0  0  0  0  0  0
   19.5127   17.8585   23.0910 H   0  0  0  0  0  0  0  0  0  0  0  0
   18.7685   19.4604   23.0891 H   0  0  0  0  0  0  0  0  0  0  0  0
   20.5421   19.3090   21.8371 C   0  0  0  0  0  0  0  0  0  0  0  0
   21.5080   18.7852   21.8525 H   0  0  0  0  0  0  0  0  0  0  0  0
   20.7647   20.3852   21.8505 H   0  0  0  0  0  0  0  0  0  0  0  0
   19.7839   18.9552   20.5381 C   0  0  0  0  0  0  0  0  0  0  0  0
   19.5610   17.8791   20.5196 H   0  0  0  0  0  0  0  0  0  0  0  0
   18.8178   19.4789   20.5176 H   0  0  0  0  0  0  0  0  0  0  0  0
   20.5964   19.3311   19.2806 C   0  0  0  0  0  0  0  0  0  0  0  0
   21.5547   18.7961   19.2549 H   0  0  0  0  0  0  0  0  0  0  0  0
   20.0421   19.0723   18.3691 H   0  0  0  0  0  0  0  0  0  0  0  0
   20.8056   20.4084   19.2528 H   0  0  0  0  0  0  0  0  0  0  0  0
  1  2  1  0  0  0  0
  1  3  1  0  0  0  0
  1  4  1  0  0  0  0
  1  5  1  0  0  0  0
  5  6  1  0  0  0  0
  5  7  1  0  0  0  0
  5  8  1  0  0  0  0
  8  9  1  0  0  0  0
  8 10  1  0  0  0  0
  8 11  1  0  0  0  0
 11 12  1  0  0  0  0
 11 13  1  0  0  0  0
 11 14  1  0  0  0  0
 14 15  1  0  0  0  0
 14 16  1  0  0  0  0
 14 17  1  0  0  0  0
 17 18  1  0  0  0  0
 17 19  1  0  0  0  0
 17 20  1  0  0  0  0
M  END
> <VConfSearch Rank>
1

> <Conf_Id>
72

> <Delta U+W>
0.000

> <U+W>
-11.778

> <U>
45.772

> <W>
-57.550

> <W(PB)>
-59.511

> <W(SA)>
1.961

> <Valence>
1.299

> <Coulomb>
44.177

> <VdW>
0.297

> <VdW6>
-3.490

> <VdW12>
3.786

> <Bond>
0.096

> <Angle>
0.381

> <Pdih>
0.822

> <Idih>
0.000

> <Tether>
0.000

$$$$
VeraChem MOL file


 20 19  0  0  0  0  0  0  0  0999 V2000     
   19.4822   19.4055   25.4133 N   0  3  0  0  0  0  0  0  0  0  0  0
   19.0967   20.3463   25.2838 H   0  0  0  0  0  0  0  0  0  0  0  0
   18.6900   18.7557   25.4356 H   0  0  0  0  0  0  0  0  0  0  0  0
   19.9096   19.3852   26.3452 H   0  0  0  0  0  0  0  0  0  0  0  0
   20.4786   19.0472   24.3291 C   0  0  0  0  0  0  0  0  0  0  0  0
   20.8695   18.0496   24.5466 H   0  0  0  0  0  0  0  0  0  0  0  0
   21.3065   19.7594   24.3827 H   0  0  0  0  0  0  0  0  0  0  0  0
   19.8689   19.0678   22.9160 C   0  0  0  0  0  0  0  0  0  0  0  0
   19.0280   18.3630   22.8712 H   0  0  0  0  0  0  0  0  0  0  0  0
   19.4642   20.0678   22.7155 H   0  0  0  0  0  0  0  0  0  0  0  0
   20.9191   18.6943   21.8432 C   0  0  0  0  0  0  0  0  0  0  0  0
   21.3671   17.7251   22.1034 H   0  0  0  0  0  0  0  0  0  0  0  0
   21.7385   19.4264   21.8567 H   0  0  0  0  0  0  0  0  0  0  0  0
   20.3343   18.5984   20.4130 C   0  0  0  0  0  0  0  0  0  0  0  0
   21.1172   18.2289   19.7359 H   0  0  0  0  0  0  0  0  0  0  0  0
   19.5301   17.8496   20.3895 H   0  0  0  0  0  0  0  0  0  0  0  0
   19.8050   19.9468   19.8734 C   0  0  0  0  0  0  0  0  0  0  0  0
   20.5825   20.7207   19.9125 H   0  0  0  0  0  0  0  0  0  0  0  0
   19.4870   19.8438   18.8278 H   0  0  0  0  0  0  0  0  0  0  0  0
   18.9391   20.2994   20.4474 H   0  0  0  0  0  0  0  0  0  0  0  0
  1  2  1  0  0  0  0
  1  3  1  0  0  0  0
  1  4  1  0  0  0  0
  1  5  1  0  0  0  0
  5  6  1  0  0  0  0
  5  7  1  0  0  0  0
  5  8  1  0  0  0  0
  8  9  1  0  0  0  0
  8 10  1  0  0  0  0
  8 11  1  0  0  0  0
 11 12  1  0  0  0  0
 11 13  1  0  0  0  0
 11 14  1  0  0  0  0
 14 15  1  0  0  0  0
 14 16  1  0  0  0  0
 14 17  1  0  0  0  0
 17 18  1  0  0  0  0
 17 19  1  0  0  0  0
 17 20  1  0  0  0  0
M  END
> <VConfSearch Rank>
2

> <Conf_Id>
42

> <Delta U+W>
0.508

> <U+W>
-11.270

> <U>
46.486

> <W>
-57.756

> <W(PB)>
-59.705

> <W(SA)>
1.949

> <Valence>
1.806

> <Coulomb>
44.248

> <VdW>
0.433

> <VdW6>
-4.089

> <VdW12>
4.522

> <Bond>
0.131

> <Angle>
0.628

> <Pdih>
1.047

> <Idih>
0.000

> <Tether>
0.000

$$$$
VeraChem MOL file


 20 19  0  0  0  0  0  0  0  0999 V2000     
   19.9291   18.4439   25.4145 N   0  3  0  0  0  0  0  0  0  0  0  0
   18.9215   18.2576   25.4362 H   0  0  0  0  0  0  0  0  0  0  0  0
   20.3995   17.5423   25.2872 H   0  0  0  0  0  0  0  0  0  0  0  0
   20.1883   18.7854   26.3460 H   0  0  0  0  0  0  0  0  0  0  0  0
   20.2988   19.4343   24.3287 C   0  0  0  0  0  0  0  0  0  0  0  0
   21.3770   19.6078   24.3829 H   0  0  0  0  0  0  0  0  0  0  0  0
   19.7883   20.3769   24.5438 H   0  0  0  0  0  0  0  0  0  0  0  0
   19.9225   18.9523   22.9161 C   0  0  0  0  0  0  0  0  0  0  0  0
   20.4259   17.9976   22.7180 H   0  0  0  0  0  0  0  0  0  0  0  0
   18.8416   18.7641   22.8708 H   0  0  0  0  0  0  0  0  0  0  0  0
   20.3154   19.9936   21.8416 C   0  0  0  0  0  0  0  0  0  0  0  0
   21.4033   20.1477   21.8559 H   0  0  0  0  0  0  0  0  0  0  0  0
   19.8634   20.9616   22.0994 H   0  0  0  0  0  0  0  0  0  0  0  0
   19.8663   19.6056   20.4118 C   0  0  0  0  0  0  0  0  0  0  0  0
   18.7754   19.4737   20.3875 H   0  0  0  0  0  0  0  0  0  0  0  0
   20.0895   20.4409   19.7332 H   0  0  0  0  0  0  0  0  0  0  0  0
   20.5560   18.3304   19.8754 C   0  0  0  0  0  0  0  0  0  0  0  0
   20.2665   17.4424   20.4508 H   0  0  0  0  0  0  0  0  0  0  0  0
   20.2733   18.1517   18.8299 H   0  0  0  0  0  0  0  0  0  0  0  0
   21.6489   18.4256   19.9154 H   0  0  0  0  0  0  0  0  0  0  0  0
  1  2  1  0  0  0  0
  1  3  1  0  0  0  0
  1  4  1  0  0  0  0
  1  5  1  0  0  0  0
  5  6  1  0  0  0  0
  5  7  1  0  0  0  0
  5  8  1  0  0  0  0
  8  9  1  0  0  0  0
  8 10  1  0  0  0  0
  8 11  1  0  0  0  0
 11 12  1  0  0  0  0
 11 13  1  0  0  0  0
 11 14  1  0  0  0  0
 14 15  1  0  0  0  0
 14 16  1  0  0  0  0
 14 17  1  0  0  0  0
 17 18  1  0  0  0  0
 17 19  1  0  0  0  0
 17 20  1  0  0  0  0
M  END
> <VConfSearch Rank>
3

> <Conf_Id>
41

> <Delta U+W>
0.515

> <U+W>
-11.263

> <U>
46.486

> <W>
-57.749

> <W(PB)>
-59.685

> <W(SA)>
1.936

> <Valence>
1.806

> <Coulomb>
44.248

> <VdW>
0.433

> <VdW6>
-4.089

> <VdW12>
4.522

> <Bond>
0.131

> <Angle>
0.628

> <Pdih>
1.047

> <Idih>
0.000

> <Tether>
0.000

$$$$
VeraChem MOL file


 20 19  0  0  0  0  0  0  0  0999 V2000     
   19.4805   19.1733   25.1477 N   0  3  0  0  0  0  0  0  0  0  0  0
   19.6590   19.4561   26.1171 H   0  0  0  0  0  0  0  0  0  0  0  0
   18.8426   19.8674   24.7474 H   0  0  0  0  0  0  0  0  0  0  0  0
   18.9743   18.2831   25.1858 H   0  0  0  0  0  0  0  0  0  0  0  0
   20.7649   19.0591   24.3494 C   0  0  0  0  0  0  0  0  0  0  0  0
   21.4080   18.3370   24.8597 H   0  0  0  0  0  0  0  0  0  0  0  0
   21.2645   20.0315   24.3680 H   0  0  0  0  0  0  0  0  0  0  0  0
   20.5553   18.6116   22.8893 C   0  0  0  0  0  0  0  0  0  0  0  0
   21.5429   18.4473   22.4407 H   0  0  0  0  0  0  0  0  0  0  0  0
   20.0379   17.6433   22.8736 H   0  0  0  0  0  0  0  0  0  0  0  0
   19.7662   19.6499   22.0525 C   0  0  0  0  0  0  0  0  0  0  0  0
   20.3014   20.6097   22.0540 H   0  0  0  0  0  0  0  0  0  0  0  0
   18.7936   19.8379   22.5260 H   0  0  0  0  0  0  0  0  0  0  0  0
   19.5138   19.2013   20.5923 C   0  0  0  0  0  0  0  0  0  0  0  0
   18.9666   18.2483   20.5854 H   0  0  0  0  0  0  0  0  0  0  0  0
   18.8561   19.9361   20.1071 H   0  0  0  0  0  0  0  0  0  0  0  0
   20.8072   19.0647   19.7567 C   0  0  0  0  0  0  0  0  0  0  0  0
   21.4449   18.2533   20.1287 H   0  0  0  0  0  0  0  0  0  0  0  0
   20.5658   18.8394   18.7099 H   0  0  0  0  0  0  0  0  0  0  0  0
   21.3889   19.9955   19.7735 H   0  0  0  0  0  0  0  0  0  0  0  0
  1  2  1  0  0  0  0
  1  3  1  0  0  0  0
  1  4  1  0  0  0  0
  1  5  1  0  0  0  0
  5  6  1  0  0  0  0
  5  7  1  0  0  0  0
  5  8  1  0  0  0  0
  8  9  1  0  0  0  0
  8 10  1  0  0  0  0
  8 11  1  0  0  0  0
 11 12  1  0  0  0  0
 11 13  1  0  0  0  0
 11 14  1  0  0  0  0
 14 15  1  0  0  0  0
 14 16  1  0  0  0  0
 14 17  1  0  0  0  0
 17 18  1  0  0  0  0
 17 19  1  0  0  0  0
 17 20  1  0  0  0  0
M  END
> <VConfSearch Rank>
4

> <Conf_Id>
33

> <Delta U+W>
0.703

> <U+W>
-11.075

> <U>
47.080

> <W>
-58.154

> <W(PB)>
-60.053

> <W(SA)>
1.899

> <Valence>
1.943

> <Coulomb>
44.572

> <VdW>
0.565

> <VdW6>
-4.575

> <VdW12>
5.139

> <Bond>
0.158

> <Angle>
0.700

> <Pdih>
1.085

> <Idih>
0.000

> <Tether>
0.000

$$$$
VeraChem MOL file


 20 19  0  0  0  0  0  0  0  0999 V2000     
   19.7508   18.5918   25.1485 N   0  3  0  0  0  0  0  0  0  0  0  0
   20.0812   18.5478   26.1182 H   0  0  0  0  0  0  0  0  0  0  0  0
   18.7439   18.7792   25.1853 H   0  0  0  0  0  0  0  0  0  0  0  0
   19.8701   17.6559   24.7501 H   0  0  0  0  0  0  0  0  0  0  0  0
   20.4926   19.6454   24.3486 C   0  0  0  0  0  0  0  0  0  0  0  0
   21.5579   19.4001   24.3687 H   0  0  0  0  0  0  0  0  0  0  0  0
   20.3550   20.6037   24.8569 H   0  0  0  0  0  0  0  0  0  0  0  0
   20.0166   19.7710   22.8879 C   0  0  0  0  0  0  0  0  0  0  0  0
   18.9429   20.0001   22.8708 H   0  0  0  0  0  0  0  0  0  0  0  0
   20.5284   20.6308   22.4380 H   0  0  0  0  0  0  0  0  0  0  0  0
   20.3018   18.4966   22.0539 C   0  0  0  0  0  0  0  0  0  0  0  0
   19.8175   17.6330   22.5287 H   0  0  0  0  0  0  0  0  0  0  0  0
   21.3804   18.2864   22.0569 H   0  0  0  0  0  0  0  0  0  0  0  0
   19.7977   18.5902   20.5930 C   0  0  0  0  0  0  0  0  0  0  0  0
   19.9353   17.6127   20.1099 H   0  0  0  0  0  0  0  0  0  0  0  0
   18.7165   18.7868   20.5846 H   0  0  0  0  0  0  0  0  0  0  0  0
   20.5285   19.6650   19.7561 C   0  0  0  0  0  0  0  0  0  0  0  0
   21.6149   19.5090   19.7743 H   0  0  0  0  0  0  0  0  0  0  0  0
   20.2018   19.6237   18.7089 H   0  0  0  0  0  0  0  0  0  0  0  0
   20.3195   20.6764   20.1257 H   0  0  0  0  0  0  0  0  0  0  0  0
  1  2  1  0  0  0  0
  1  3  1  0  0  0  0
  1  4  1  0  0  0  0
  1  5  1  0  0  0  0
  5  6  1  0  0  0  0
  5  7  1  0  0  0  0
  5  8  1  0  0  0  0
  8  9  1  0  0  0  0
  8 10  1  0  0  0  0
  8 11  1  0  0  0  0
 11 12  1  0  0  0  0
 11 13  1  0  0  0  0
 11 14  1  0  0  0  0
 14 15  1  0  0  0  0
 14 16  1  0  0  0  0
 14 17  1  0  0  0  0
 17 18  1  0  0  0  0
 17 19  1  0  0  0  0
 17 20  1  0  0  0  0
M  END
> <VConfSearch Rank>
5

> <Conf_Id>
24

> <Delta U+W>
0.847

> <U+W>
-10.931

> <U>
47.080

> <W>
-58.011

> <W(PB)>
-59.914

> <W(SA)>
1.903

> <Valence>
1.943

> <Coulomb>
44.572

> <VdW>
0.565

> <VdW6>
-4.575

> <VdW12>
5.140

> <Bond>
0.158

> <Angle>
0.700

> <Pdih>
1.085

> <Idih>
0.000

> <Tether>
0.000

$$$$
VeraChem MOL file


 20 19  0  0  0  0  0  0  0  0999 V2000     
   19.9278   19.7544   25.1738 N   0  3  0  0  0  0  0  0  0  0  0  0
   20.6512   20.1528   25.7816 H   0  0  0  0  0  0  0  0  0  0  0  0
   19.2453   20.4981   24.9969 H   0  0  0  0  0  0  0  0  0  0  0  0
   19.4493   19.0294   25.7176 H   0  0  0  0  0  0  0  0  0  0  0  0
   20.5125   19.2045   23.8884 C   0  0  0  0  0  0  0  0  0  0  0  0
   21.2493   18.4409   24.1517 H   0  0  0  0  0  0  0  0  0  0  0  0
   21.0305   20.0211   23.3788 H   0  0  0  0  0  0  0  0  0  0  0  0
   19.4508   18.5984   22.9512 C   0  0  0  0  0  0  0  0  0  0  0  0
   18.9088   17.8077   23.4867 H   0  0  0  0  0  0  0  0  0  0  0  0
   18.7056   19.3617   22.6936 H   0  0  0  0  0  0  0  0  0  0  0  0
   20.0628   17.9985   21.6607 C   0  0  0  0  0  0  0  0  0  0  0  0
   19.2556   17.5752   21.0471 H   0  0  0  0  0  0  0  0  0  0  0  0
   20.7103   17.1533   21.9326 H   0  0  0  0  0  0  0  0  0  0  0  0
   20.8809   18.9976   20.8028 C   0  0  0  0  0  0  0  0  0  0  0  0
   21.7557   19.3526   21.3645 H   0  0  0  0  0  0  0  0  0  0  0  0
   21.2806   18.4636   19.9293 H   0  0  0  0  0  0  0  0  0  0  0  0
   20.0531   20.2067   20.3111 C   0  0  0  0  0  0  0  0  0  0  0  0
   20.6503   20.8318   19.6346 H   0  0  0  0  0  0  0  0  0  0  0  0
   19.1605   19.8777   19.7635 H   0  0  0  0  0  0  0  0  0  0  0  0
   19.7304   20.8404   21.1465 H   0  0  0  0  0  0  0  0  0  0  0  0
  1  2  1  0  0  0  0
  1  3  1  0  0  0  0
  1  4  1  0  0  0  0
  1  5  1  0  0  0  0
  5  6  1  0  0  0  0
  5  7  1  0  0  0  0
  5  8  1  0  0  0  0
  8  9  1  0  0  0  0
  8 10  1  0  0  0  0
  8 11  1  0  0  0  0
 11 12  1  0  0  0  0
 11 13  1  0  0  0  0
 11 14  1  0  0  0  0
 14 15  1  0  0  0  0
 14 16  1  0  0  0  0
 14 17  1  0  0  0  0
 17 18  1  0  0  0  0
 17 19  1  0  0  0  0
 17 20  1  0  0  0  0
M  END
> <VConfSearch Rank>
6

> <Conf_Id>
64

> <Delta U+W>
0.707

> <U+W>
-11.070

> <U>
47.077

> <W>
-58.148

> <W(PB)>
-60.054

> <W(SA)>
1.906

> <Valence>
2.039

> <Coulomb>
44.655

> <VdW>
0.383

> <VdW6>
-4.912

> <VdW12>
5.295

> <Bond>
0.159

> <Angle>
0.856

> <Pdih>
1.024

> <Idih>
0.000

> <Tether>
0.000

$$$$
VeraChem MOL file


 20 19  0  0  0  0  0  0  0  0999 V2000     
   20.4824   18.5581   25.1751 N   0  3  0  0  0  0  0  0  0  0  0  0
   19.6194   18.6623   25.7179 H   0  0  0  0  0  0  0  0  0  0  0  0
   20.6091   17.5563   25.0002 H   0  0  0  0  0  0  0  0  0  0  0  0
   21.2534   18.8538   25.7831 H   0  0  0  0  0  0  0  0  0  0  0  0
   20.4417   19.3572   23.8882 C   0  0  0  0  0  0  0  0  0  0  0  0
   21.4001   19.2238   23.3796 H   0  0  0  0  0  0  0  0  0  0  0  0
   20.3349   20.4135   24.1494 H   0  0  0  0  0  0  0  0  0  0  0  0
   19.2939   18.9370   22.9509 C   0  0  0  0  0  0  0  0  0  0  0  0
   19.3950   17.8744   22.6954 H   0  0  0  0  0  0  0  0  0  0  0  0
   18.3397   19.0354   23.4853 H   0  0  0  0  0  0  0  0  0  0  0  0
   19.2327   19.7892   21.6586 C   0  0  0  0  0  0  0  0  0  0  0  0
   19.0058   20.8300   21.9283 H   0  0  0  0  0  0  0  0  0  0  0  0
   18.3885   19.4455   21.0449 H   0  0  0  0  0  0  0  0  0  0  0  0
   20.5245   19.7663   20.8019 C   0  0  0  0  0  0  0  0  0  0  0  0
   20.3760   20.4146   19.9270 H   0  0  0  0  0  0  0  0  0  0  0  0
   21.3602   20.2056   21.3635 H   0  0  0  0  0  0  0  0  0  0  0  0
   20.9129   18.3523   20.3133 C   0  0  0  0  0  0  0  0  0  0  0  0
   20.0855   17.8825   19.7659 H   0  0  0  0  0  0  0  0  0  0  0  0
   21.7764   18.4027   19.6375 H   0  0  0  0  0  0  0  0  0  0  0  0
   21.1872   17.6981   21.1503 H   0  0  0  0  0  0  0  0  0  0  0  0
  1  2  1  0  0  0  0
  1  3  1  0  0  0  0
  1  4  1  0  0  0  0
  1  5  1  0  0  0  0
  5  6  1  0  0  0  0
  5  7  1  0  0  0  0
  5  8  1  0  0  0  0
  8  9  1  0  0  0  0
  8 10  1  0  0  0  0
  8 11  1  0  0  0  0
 11 12  1  0  0  0  0
 11 13  1  0  0  0  0
 11 14  1  0  0  0  0
 14 15  1  0  0  0  0
 14 16  1  0  0  0  0
 14 17  1  0  0  0  0
 17 18  1  0  0  0  0
 17 19  1  0  0  0  0
 17 20  1  0  0  0  0
M  END
> <VConfSearch Rank>
7

> <Conf_Id>
22

> <Delta U+W>
0.731

> <U+W>
-11.047

> <U>
47.078

> <W>
-58.125

> <W(PB)>
-60.031

> <W(SA)>
1.906

> <Valence>
2.039

> <Coulomb>
44.655

> <VdW>
0.383

> <VdW6>
-4.913

> <VdW12>
5.296

> <Bond>
0.159

> <Angle>
0.856

> <Pdih>
1.024

> <Idih>
0.000

> <Tether>
0.000

$$$$
VeraChem MOL file


 20 19  0  0  0  0  0  0  0  0999 V2000     
   20.0214   19.6940   25.1988 N   0  3  0  0  0  0  0  0  0  0  0  0
   19.0096   19.7649   25.3457 H   0  0  0  0  0  0  0  0  0  0  0  0
   20.3536   18.9077   25.7661 H   0  0  0  0  0  0  0  0  0  0  0  0
   20.4395   20.5428   25.5939 H   0  0  0  0  0  0  0  0  0  0  0  0
   20.3705   19.5230   23.7341 C   0  0  0  0  0  0  0  0  0  0  0  0
   21.4597   19.4823   23.6483 H   0  0  0  0  0  0  0  0  0  0  0  0
   20.0127   20.4077   23.2025 H   0  0  0  0  0  0  0  0  0  0  0  0
   19.7527   18.2594   23.1093 C   0  0  0  0  0  0  0  0  0  0  0  0
   20.0243   17.3920   23.7255 H   0  0  0  0  0  0  0  0  0  0  0  0
   18.6576   18.3329   23.1431 H   0  0  0  0  0  0  0  0  0  0  0  0
   20.2113   17.9898   21.6536 C   0  0  0  0  0  0  0  0  0  0  0  0
   19.7845   17.0248   21.3469 H   0  0  0  0  0  0  0  0  0  0  0  0
   21.3014   17.8564   21.6184 H   0  0  0  0  0  0  0  0  0  0  0  0
   19.7691   19.0589   20.6209 C   0  0  0  0  0  0  0  0  0  0  0  0
   19.6750   18.5723   19.6398 H   0  0  0  0  0  0  0  0  0  0  0  0
   18.7668   19.4359   20.8677 H   0  0  0  0  0  0  0  0  0  0  0  0
   20.7628   20.2349   20.4713 C   0  0  0  0  0  0  0  0  0  0  0  0
   20.8438   20.8300   21.3869 H   0  0  0  0  0  0  0  0  0  0  0  0
   21.7657   19.8724   20.2107 H   0  0  0  0  0  0  0  0  0  0  0  0
   20.4363   20.9107   19.6702 H   0  0  0  0  0  0  0  0  0  0  0  0
  1  2  1  0  0  0  0
  1  3  1  0  0  0  0
  1  4  1  0  0  0  0
  1  5  1  0  0  0  0
  5  6  1  0  0  0  0
  5  7  1  0  0  0  0
  5  8  1  0  0  0  0
  8  9  1  0  0  0  0
  8 10  1  0  0  0  0
  8 11  1  0  0  0  0
 11 12  1  0  0  0  0
 11 13  1  0  0  0  0
 11 14  1  0  0  0  0
 14 15  1  0  0  0  0
 14 16  1  0  0  0  0
 14 17  1  0  0  0  0
 17 18  1  0  0  0  0
 17 19  1  0  0  0  0
 17 20  1  0  0  0  0
M  END
> <VConfSearch Rank>
8

> <Conf_Id>
61

> <Delta U+W>
2.669

> <U+W>
-9.108

> <U>
48.916

> <W>
-58.025

> <W(PB)>
-59.935

> <W(SA)>
1.911

> <Valence>
3.785

> <Coulomb>
44.716

> <VdW>
0.415

> <VdW6>
-4.836

> <VdW12>
5.251

> <Bond>
0.175

> <Angle>
1.195

> <Pdih>
2.415

> <Idih>
0.000

> <Tether>
0.000

$$$$
VeraChem MOL file


 20 19  0  0  0  0  0  0  0  0999 V2000     
   19.6644   17.9703   24.3957 N   0  3  0  0  0  0  0  0  0  0  0  0
   20.0278   17.3280   25.1077 H   0  0  0  0  0  0  0  0  0  0  0  0
   18.6828   18.1483   24.6304 H   0  0  0  0  0  0  0  0  0  0  0  0
   19.6755   17.4681   23.5042 H   0  0  0  0  0  0  0  0  0  0  0  0
   20.4697   19.2541   24.3337 C   0  0  0  0  0  0  0  0  0  0  0  0
   21.5152   19.0008   24.1385 H   0  0  0  0  0  0  0  0  0  0  0  0
   20.4128   19.7133   25.3243 H   0  0  0  0  0  0  0  0  0  0  0  0
   19.9711   20.2679   23.2825 C   0  0  0  0  0  0  0  0  0  0  0  0
   18.8744   20.3203   23.3004 H   0  0  0  0  0  0  0  0  0  0  0  0
   20.3246   21.2627   23.5846 H   0  0  0  0  0  0  0  0  0  0  0  0
   20.4761   20.0028   21.8408 C   0  0  0  0  0  0  0  0  0  0  0  0
   21.5748   20.0115   21.8303 H   0  0  0  0  0  0  0  0  0  0  0  0
   20.1582   20.8428   21.2076 H   0  0  0  0  0  0  0  0  0  0  0  0
   19.9648   18.6842   21.2144 C   0  0  0  0  0  0  0  0  0  0  0  0
   20.3952   17.8248   21.7436 H   0  0  0  0  0  0  0  0  0  0  0  0
   18.8726   18.6198   21.3183 H   0  0  0  0  0  0  0  0  0  0  0  0
   20.3419   18.5807   19.7210 C   0  0  0  0  0  0  0  0  0  0  0  0
   19.9806   17.6360   19.2943 H   0  0  0  0  0  0  0  0  0  0  0  0
   19.8980   19.4018   19.1430 H   0  0  0  0  0  0  0  0  0  0  0  0
   21.4307   18.6169   19.5853 H   0  0  0  0  0  0  0  0  0  0  0  0
  1  2  1  0  0  0  0
  1  3  1  0  0  0  0
  1  4  1  0  0  0  0
  1  5  1  0  0  0  0
  5  6  1  0  0  0  0
  5  7  1  0  0  0  0
  5  8  1  0  0  0  0
  8  9  1  0  0  0  0
  8 10  1  0  0  0  0
  8 11  1  0  0  0  0
 11 12  1  0  0  0  0
 11 13  1  0  0  0  0
 11 14  1  0  0  0  0
 14 15  1  0  0  0  0
 14 16  1  0  0  0  0
 14 17  1  0  0  0  0
 17 18  1  0  0  0  0
 17 19  1  0  0  0  0
 17 20  1  0  0  0  0
M  END
> <VConfSearch Rank>
9

> <Conf_Id>
69

> <Delta U+W>
2.811

> <U+W>
-8.967

> <U>
49.216

> <W>
-58.183

> <W(PB)>
-60.064

> <W(SA)>
1.881

> <Valence>
2.929

> <Coulomb>
46.006

> <VdW>
0.281

> <VdW6>
-4.909

> <VdW12>
5.190

> <Bond>
0.156

> <Angle>
0.974

> <Pdih>
1.799

> <Idih>
0.000

> <Tether>
0.000

$$$$
VeraChem MOL file


 20 19  0  0  0  0  0  0  0  0999 V2000     
   18.9505   19.5066   24.3938 N   0  3  0  0  0  0  0  0  0  0  0  0
   18.5747   19.8370   23.5013 H   0  0  0  0  0  0  0  0  0  0  0  0
   18.4534   18.6420   24.6298 H   0  0  0  0  0  0  0  0  0  0  0  0
   18.6932   20.2000   25.1042 H   0  0  0  0  0  0  0  0  0  0  0  0
   20.4511   19.2942   24.3336 C   0  0  0  0  0  0  0  0  0  0  0  0
   20.7644   18.9566   25.3253 H   0  0  0  0  0  0  0  0  0  0  0  0
   20.9318   20.2563   24.1369 H   0  0  0  0  0  0  0  0  0  0  0  0
   20.9055   18.2572   23.2850 C   0  0  0  0  0  0  0  0  0  0  0  0
   21.8935   17.8866   23.5888 H   0  0  0  0  0  0  0  0  0  0  0  0
   20.2383   17.3852   23.3041 H   0  0  0  0  0  0  0  0  0  0  0  0
   21.0298   18.8112   21.8422 C   0  0  0  0  0  0  0  0  0  0  0  0
   21.4673   18.0252   21.2111 H   0  0  0  0  0  0  0  0  0  0  0  0
   21.7450   19.6453   21.8307 H   0  0  0  0  0  0  0  0  0  0  0  0
   19.6929   19.2694   21.2137 C   0  0  0  0  0  0  0  0  0  0  0  0
   18.9392   18.4764   21.3185 H   0  0  0  0  0  0  0  0  0  0  0  0
   19.3131   20.1536   21.7407 H   0  0  0  0  0  0  0  0  0  0  0  0
   19.8583   19.6214   19.7198 C   0  0  0  0  0  0  0  0  0  0  0  0
   20.2002   18.7516   19.1438 H   0  0  0  0  0  0  0  0  0  0  0  0
   18.9037   19.9536   19.2915 H   0  0  0  0  0  0  0  0  0  0  0  0
   20.5882   20.4300   19.5831 H   0  0  0  0  0  0  0  0  0  0  0  0
  1  2  1  0  0  0  0
  1  3  1  0  0  0  0
  1  4  1  0  0  0  0
  1  5  1  0  0  0  0
  5  6  1  0  0  0  0
  5  7  1  0  0  0  0
  5  8  1  0  0  0  0
  8  9  1  0  0  0  0
  8 10  1  0  0  0  0
  8 11  1  0  0  0  0
 11 12  1  0  0  0  0
 11 13  1  0  0  0  0
 11 14  1  0  0  0  0
 14 15  1  0  0  0  0
 14 16  1  0  0  0  0
 14 17  1  0  0  0  0
 17 18  1  0  0  0  0
 17 19  1  0  0  0  0
 17 20  1  0  0  0  0
M  END
> <VConfSearch Rank>
10

> <Conf_Id>
26

> <Delta U+W>
2.809

> <U+W>
-8.969

> <U>
49.216

> <W>
-58.185

> <W(PB)>
-60.088

> <W(SA)>
1.903

> <Valence>
2.929

> <Coulomb>
46.006

> <VdW>
0.281

> <VdW6>
-4.909

> <VdW12>
5.190

> <Bond>
0.156

> <Angle>
0.974

> <Pdih>
1.799

> <Idih>
0.000

> <Tether>
0.000

$$$$
VeraChem MOL file


 20 19  0  0  0  0  0  0  0  0999 V2000     
   19.3249   19.3699   24.7367 N   0  3  0  0  0  0  0  0  0  0  0  0
   18.5130   19.1673   24.1462 H   0  0  0  0  0  0  0  0  0  0  0  0
   19.4601   18.5624   25.3530 H   0  0  0  0  0  0  0  0  0  0  0  0
   19.0711   20.1628   25.3352 H   0  0  0  0  0  0  0  0  0  0  0  0
   20.5617   19.6611   23.9094 C   0  0  0  0  0  0  0  0  0  0  0  0
   21.3760   19.8977   24.5996 H   0  0  0  0  0  0  0  0  0  0  0  0
   20.3635   20.5482   23.3022 H   0  0  0  0  0  0  0  0  0  0  0  0
   20.9869   18.4919   22.9980 C   0  0  0  0  0  0  0  0  0  0  0  0
   21.9266   18.7575   22.4971 H   0  0  0  0  0  0  0  0  0  0  0  0
   21.2162   17.6166   23.6200 H   0  0  0  0  0  0  0  0  0  0  0  0
   19.9242   18.1003   21.9376 C   0  0  0  0  0  0  0  0  0  0  0  0
   19.0439   17.6809   22.4429 H   0  0  0  0  0  0  0  0  0  0  0  0
   20.3263   17.2869   21.3179 H   0  0  0  0  0  0  0  0  0  0  0  0
   19.4686   19.2595   21.0147 C   0  0  0  0  0  0  0  0  0  0  0  0
   18.7051   18.8774   20.3227 H   0  0  0  0  0  0  0  0  0  0  0  0
   18.9752   20.0439   21.6045 H   0  0  0  0  0  0  0  0  0  0  0  0
   20.6217   19.8772   20.1916 C   0  0  0  0  0  0  0  0  0  0  0  0
   21.1429   19.1099   19.6046 H   0  0  0  0  0  0  0  0  0  0  0  0
   20.2348   20.6295   19.4921 H   0  0  0  0  0  0  0  0  0  0  0  0
   21.3563   20.3743   20.8373 H   0  0  0  0  0  0  0  0  0  0  0  0
  1  2  1  0  0  0  0
  1  3  1  0  0  0  0
  1  4  1  0  0  0  0
  1  5  1  0  0  0  0
  5  6  1  0  0  0  0
  5  7  1  0  0  0  0
  5  8  1  0  0  0  0
  8  9  1  0  0  0  0
  8 10  1  0  0  0  0
  8 11  1  0  0  0  0
 11 12  1  0  0  0  0
 11 13  1  0  0  0  0
 11 14  1  0  0  0  0
 14 15  1  0  0  0  0
 14 16  1  0  0  0  0
 14 17  1  0  0  0  0
 17 18  1  0  0  0  0
 17 19  1  0  0  0  0
 17 20  1  0  0  0  0
M  END
> <VConfSearch Rank>
11

> <Conf_Id>
2

> <Delta U+W>
0.994

> <U+W>
-10.784

> <U>
47.562

> <W>
-58.346

> <W(PB)>
-60.221

> <W(SA)>
1.875

> <Valence>
2.149

> <Coulomb>
45.034

> <VdW>
0.378

> <VdW6>
-5.599

> <VdW12>
5.977

> <Bond>
0.185

> <Angle>
0.935

> <Pdih>
1.028

> <Idih>
0.000

> <Tether>
0.000

$$$$
VeraChem MOL file


 20 19  0  0  0  0  0  0  0  0999 V2000     
   19.8009   18.3452   24.7378 N   0  3  0  0  0  0  0  0  0  0  0  0
   19.2706   18.9705   25.3524 H   0  0  0  0  0  0  0  0  0  0  0  0
   19.1229   17.8543   24.1476 H   0  0  0  0  0  0  0  0  0  0  0  0
   20.2426   17.6409   25.3379 H   0  0  0  0  0  0  0  0  0  0  0  0
   20.8219   19.1010   23.9099 C   0  0  0  0  0  0  0  0  0  0  0  0
   21.3725   18.3761   23.3046 H   0  0  0  0  0  0  0  0  0  0  0  0
   21.5273   19.5719   24.5999 H   0  0  0  0  0  0  0  0  0  0  0  0
   20.2035   20.1783   22.9960 C   0  0  0  0  0  0  0  0  0  0  0  0
   19.6820   20.9193   23.6161 H   0  0  0  0  0  0  0  0  0  0  0  0
   21.0131   20.7242   22.4948 H   0  0  0  0  0  0  0  0  0  0  0  0
   19.2198   19.6168   21.9357 C   0  0  0  0  0  0  0  0  0  0  0  0
   18.8583   20.4475   21.3140 H   0  0  0  0  0  0  0  0  0  0  0  0
   18.3309   19.2158   22.4410 H   0  0  0  0  0  0  0  0  0  0  0  0
   19.8125   18.5190   21.0157 C   0  0  0  0  0  0  0  0  0  0  0  0
   20.0927   17.6371   21.6075 H   0  0  0  0  0  0  0  0  0  0  0  0
   19.0287   18.1809   20.3235 H   0  0  0  0  0  0  0  0  0  0  0  0
   21.0293   18.9998   20.1929 C   0  0  0  0  0  0  0  0  0  0  0  0
   21.8823   19.2416   20.8392 H   0  0  0  0  0  0  0  0  0  0  0  0
   21.3552   18.2174   19.4953 H   0  0  0  0  0  0  0  0  0  0  0  0
   20.7801   19.8918   19.6039 H   0  0  0  0  0  0  0  0  0  0  0  0
  1  2  1  0  0  0  0
  1  3  1  0  0  0  0
  1  4  1  0  0  0  0
  1  5  1  0  0  0  0
  5  6  1  0  0  0  0
  5  7  1  0  0  0  0
  5  8  1  0  0  0  0
  8  9  1  0  0  0  0
  8 10  1  0  0  0  0
  8 11  1  0  0  0  0
 11 12  1  0  0  0  0
 11 13  1  0  0  0  0
 11 14  1  0  0  0  0
 14 15  1  0  0  0  0
 14 16  1  0  0  0  0
 14 17  1  0  0  0  0
 17 18  1  0  0  0  0
 17 19  1  0  0  0  0
 17 20  1  0  0  0  0
M  END
> <VConfSearch Rank>
12

> <Conf_Id>
1

> <Delta U+W>
1.032

> <U+W>
-10.746

> <U>
47.562

> <W>
-58.308

> <W(PB)>
-60.184

> <W(SA)>
1.877

> <Valence>
2.149

> <Coulomb>
45.035

> <VdW>
0.378

> <VdW6>
-5.599

> <VdW12>
5.978

> <Bond>
0.185

> <Angle>
0.935

> <Pdih>
1.028

> <Idih>
0.000

> <Tether>
0.000

$$$$
VeraChem MOL file


 20 19  0  0  0  0  0  0  0  0999 V2000     
   20.8332   18.6160   24.6874 N   0  3  0  0  0  0  0  0  0  0  0  0
   20.1085   18.2862   25.3325 H   0  0  0  0  0  0  0  0  0  0  0  0
   21.0974   17.8219   24.0972 H   0  0  0  0  0  0  0  0  0  0  0  0
   21.6531   18.8522   25.2559 H   0  0  0  0  0  0  0  0  0  0  0  0
   20.3599   19.7978   23.8633 C   0  0  0  0  0  0  0  0  0  0  0  0
   21.1861   20.1150   23.2251 H   0  0  0  0  0  0  0  0  0  0  0  0
   20.1385   20.6138   24.5566 H   0  0  0  0  0  0  0  0  0  0  0  0
   19.1063   19.5027   23.0125 C   0  0  0  0  0  0  0  0  0  0  0  0
   18.3044   19.1785   23.6890 H   0  0  0  0  0  0  0  0  0  0  0  0
   18.7520   20.4343   22.5518 H   0  0  0  0  0  0  0  0  0  0  0  0
   19.3051   18.4223   21.9155 C   0  0  0  0  0  0  0  0  0  0  0  0
   18.3191   18.0005   21.6762 H   0  0  0  0  0  0  0  0  0  0  0  0
   19.8960   17.5819   22.3020 H   0  0  0  0  0  0  0  0  0  0  0  0
   19.9220   18.9381   20.5899 C   0  0  0  0  0  0  0  0  0  0  0  0
   19.9263   18.1102   19.8670 H   0  0  0  0  0  0  0  0  0  0  0  0
   19.2751   19.7140   20.1571 H   0  0  0  0  0  0  0  0  0  0  0  0
   21.3615   19.4831   20.7195 C   0  0  0  0  0  0  0  0  0  0  0  0
   22.0096   18.7757   21.2525 H   0  0  0  0  0  0  0  0  0  0  0  0
   21.7964   19.6527   19.7260 H   0  0  0  0  0  0  0  0  0  0  0  0
   21.3789   20.4439   21.2473 H   0  0  0  0  0  0  0  0  0  0  0  0
  1  2  1  0  0  0  0
  1  3  1  0  0  0  0
  1  4  1  0  0  0  0
  1  5  1  0  0  0  0
  5  6  1  0  0  0  0
  5  7  1  0  0  0  0
  5  8  1  0  0  0  0
  8  9  1  0  0  0  0
  8 10  1  0  0  0  0
  8 11  1  0  0  0  0
 11 12  1  0  0  0  0
 11 13  1  0  0  0  0
 11 14  1  0  0  0  0
 14 15  1  0  0  0  0
 14 16  1  0  0  0  0
 14 17  1  0  0  0  0
 17 18  1  0  0  0  0
 17 19  1  0  0  0  0
 17 20  1  0  0  0  0
M  END
> <VConfSearch Rank>
13

> <Conf_Id>
80

> <Delta U+W>
2.920

> <U+W>
-8.857

> <U>
49.434

> <W>
-58.292

> <W(PB)>
-60.170

> <W(SA)>
1.879

> <Valence>
3.798

> <Coulomb>
45.253

> <VdW>
0.384

> <VdW6>
-5.595

> <VdW12>
5.979

> <Bond>
0.198

> <Angle>
1.368

> <Pdih>
2.231

> <Idih>
0.000

> <Tether>
0.000

$$$$
VeraChem MOL file


 20 19  0  0  0  0  0  0  0  0999 V2000     
   20.1983   19.9842   24.6854 N   0  3  0  0  0  0  0  0  0  0  0  0
   19.4778   19.6452   25.3305 H   0  0  0  0  0  0  0  0  0  0  0  0
   20.9075   20.4591   25.2537 H   0  0  0  0  0  0  0  0  0  0  0  0
   19.7631   20.6974   24.0932 H   0  0  0  0  0  0  0  0  0  0  0  0
   20.7961   18.8580   23.8645 C   0  0  0  0  0  0  0  0  0  0  0  0
   21.2756   18.1636   24.5598 H   0  0  0  0  0  0  0  0  0  0  0  0
   21.5724   19.2828   23.2261 H   0  0  0  0  0  0  0  0  0  0  0  0
   19.7623   18.0892   23.0142 C   0  0  0  0  0  0  0  0  0  0  0  0
   20.2455   17.2164   22.5558 H   0  0  0  0  0  0  0  0  0  0  0  0
   18.9964   17.6875   23.6909 H   0  0  0  0  0  0  0  0  0  0  0  0
   19.0664   18.9362   21.9149 C   0  0  0  0  0  0  0  0  0  0  0  0
   18.8053   19.9307   22.2992 H   0  0  0  0  0  0  0  0  0  0  0  0
   18.1081   18.4547   21.6754 H   0  0  0  0  0  0  0  0  0  0  0  0
   19.8599   19.0720   20.5898 C   0  0  0  0  0  0  0  0  0  0  0  0
   20.0356   18.0763   20.1592 H   0  0  0  0  0  0  0  0  0  0  0  0
   19.2310   19.6081   19.8652 H   0  0  0  0  0  0  0  0  0  0  0  0
   21.2051   19.8202   20.7193 C   0  0  0  0  0  0  0  0  0  0  0  0
   21.9498   19.2145   21.2489 H   0  0  0  0  0  0  0  0  0  0  0  0
   21.6162   20.0412   19.7257 H   0  0  0  0  0  0  0  0  0  0  0  0
   21.0824   20.7729   21.2505 H   0  0  0  0  0  0  0  0  0  0  0  0
  1  2  1  0  0  0  0
  1  3  1  0  0  0  0
  1  4  1  0  0  0  0
  1  5  1  0  0  0  0
  5  6  1  0  0  0  0
  5  7  1  0  0  0  0
  5  8  1  0  0  0  0
  8  9  1  0  0  0  0
  8 10  1  0  0  0  0
  8 11  1  0  0  0  0
 11 12  1  0  0  0  0
 11 13  1  0  0  0  0
 11 14  1  0  0  0  0
 14 15  1  0  0  0  0
 14 16  1  0  0  0  0
 14 17  1  0  0  0  0
 17 18  1  0  0  0  0
 17 19  1  0  0  0  0
 17 20  1  0  0  0  0
M  END
> <VConfSearch Rank>
14

> <Conf_Id>
65

> <Delta U+W>
2.949

> <U+W>
-8.829

> <U>
49.435

> <W>
-58.263

> <W(PB)>
-60.125

> <W(SA)>
1.862

> <Valence>
3.797

> <Coulomb>
45.253

> <VdW>
0.384

> <VdW6>
-5.596

> <VdW12>
5.980

> <Bond>
0.198

> <Angle>
1.369

> <Pdih>
2.230

> <Idih>
0.000

> <Tether>
0.000

$$$$
VeraChem MOL file


 20 19  0  0  0  0  0  0  0  0999 V2000     
   19.3357   20.1128   24.0403 N   0  3  0  0  0  0  0  0  0  0  0  0
   19.4620   20.9865   24.5621 H   0  0  0  0  0  0  0  0  0  0  0  0
   19.0539   20.3634   23.0877 H   0  0  0  0  0  0  0  0  0  0  0  0
   18.5478   19.6194   24.4717 H   0  0  0  0  0  0  0  0  0  0  0  0
   20.5957   19.2690   24.0404 C   0  0  0  0  0  0  0  0  0  0  0  0
   20.8286   19.0427   25.0844 H   0  0  0  0  0  0  0  0  0  0  0  0
   21.4164   19.8642   23.6313 H   0  0  0  0  0  0  0  0  0  0  0  0
   20.4651   17.9477   23.2559 C   0  0  0  0  0  0  0  0  0  0  0  0
   21.2204   17.2524   23.6455 H   0  0  0  0  0  0  0  0  0  0  0  0
   19.4934   17.4829   23.4698 H   0  0  0  0  0  0  0  0  0  0  0  0
   20.6763   18.0653   21.7225 C   0  0  0  0  0  0  0  0  0  0  0  0
   20.6105   17.0516   21.3035 H   0  0  0  0  0  0  0  0  0  0  0  0
   21.6999   18.4041   21.5104 H   0  0  0  0  0  0  0  0  0  0  0  0
   19.6545   18.9601   20.9757 C   0  0  0  0  0  0  0  0  0  0  0  0
   19.4575   18.5177   19.9889 H   0  0  0  0  0  0  0  0  0  0  0  0
   18.6882   18.9582   21.4979 H   0  0  0  0  0  0  0  0  0  0  0  0
   20.1607   20.4051   20.7531 C   0  0  0  0  0  0  0  0  0  0  0  0
   20.4489   20.8974   21.6881 H   0  0  0  0  0  0  0  0  0  0  0  0
   21.0397   20.4089   20.0953 H   0  0  0  0  0  0  0  0  0  0  0  0
   19.3861   21.0167   20.2723 H   0  0  0  0  0  0  0  0  0  0  0  0
  1  2  1  0  0  0  0
  1  3  1  0  0  0  0
  1  4  1  0  0  0  0
  1  5  1  0  0  0  0
  5  6  1  0  0  0  0
  5  7  1  0  0  0  0
  5  8  1  0  0  0  0
  8  9  1  0  0  0  0
  8 10  1  0  0  0  0
  8 11  1  0  0  0  0
 11 12  1  0  0  0  0
 11 13  1  0  0  0  0
 11 14  1  0  0  0  0
 14 15  1  0  0  0  0
 14 16  1  0  0  0  0
 14 17  1  0  0  0  0
 17 18  1  0  0  0  0
 17 19  1  0  0  0  0
 17 20  1  0  0  0  0
M  END
> <VConfSearch Rank>
15

> <Conf_Id>
77

> <Delta U+W>
5.366

> <U+W>
-6.412

> <U>
51.542

> <W>
-57.954

> <W(PB)>
-59.811

> <W(SA)>
1.857

> <Valence>
5.347

> <Coulomb>
45.870

> <VdW>
0.325

> <VdW6>
-6.161

> <VdW12>
6.486

> <Bond>
0.201

> <Angle>
1.484

> <Pdih>
3.662

> <Idih>
0.000

> <Tether>
0.000

$$$$
VeraChem MOL file


 20 19  0  0  0  0  0  0  0  0999 V2000     
   20.3761   17.8730   24.0431 N   0  3  0  0  0  0  0  0  0  0  0  0
   19.4904   17.5901   24.4742 H   0  0  0  0  0  0  0  0  0  0  0  0
   20.3866   17.4941   23.0912 H   0  0  0  0  0  0  0  0  0  0  0  0
   21.1248   17.4069   24.5665 H   0  0  0  0  0  0  0  0  0  0  0  0
   20.5442   19.3801   24.0402 C   0  0  0  0  0  0  0  0  0  0  0  0
   21.5288   19.6224   23.6315 H   0  0  0  0  0  0  0  0  0  0  0  0
   20.5205   19.7061   25.0836 H   0  0  0  0  0  0  0  0  0  0  0  0
   19.4509   20.1310   23.2533 C   0  0  0  0  0  0  0  0  0  0  0  0
   18.4688   19.6889   23.4672 H   0  0  0  0  0  0  0  0  0  0  0  0
   19.4066   21.1575   23.6408 H   0  0  0  0  0  0  0  0  0  0  0  0
   19.6784   20.2135   21.7199 C   0  0  0  0  0  0  0  0  0  0  0  0
   20.5977   20.7768   21.5075 H   0  0  0  0  0  0  0  0  0  0  0  0
   18.8617   20.8163   21.2990 H   0  0  0  0  0  0  0  0  0  0  0  0
   19.7037   18.8540   20.9759 C   0  0  0  0  0  0  0  0  0  0  0  0
   19.0786   18.1179   21.4989 H   0  0  0  0  0  0  0  0  0  0  0  0
   19.2396   18.9869   19.9884 H   0  0  0  0  0  0  0  0  0  0  0  0
   21.1347   18.3083   20.7557 C   0  0  0  0  0  0  0  0  0  0  0  0
   21.1028   17.3210   20.2767 H   0  0  0  0  0  0  0  0  0  0  0  0
   21.7053   18.9763   20.0972 H   0  0  0  0  0  0  0  0  0  0  0  0
   21.6958   18.2128   21.6914 H   0  0  0  0  0  0  0  0  0  0  0  0
  1  2  1  0  0  0  0
  1  3  1  0  0  0  0
  1  4  1  0  0  0  0
  1  5  1  0  0  0  0
  5  6  1  0  0  0  0
  5  7  1  0  0  0  0
  5  8  1  0  0  0  0
  8  9  1  0  0  0  0
  8 10  1  0  0  0  0
  8 11  1  0  0  0  0
 11 12  1  0  0  0  0
 11 13  1  0  0  0  0
 11 14  1  0  0  0  0
 14 15  1  0  0  0  0
 14 16  1  0  0  0  0
 14 17  1  0  0  0  0
 17 18  1  0  0  0  0
 17 19  1  0  0  0  0
 17 20  1  0  0  0  0
M  END
> <VConfSearch Rank>
16

> <Conf_Id>
67

> <Delta U+W>
5.353

> <U+W>
-6.425

> <U>
51.541

> <W>
-57.966

> <W(PB)>
-59.821

> <W(SA)>
1.855

> <Valence>
5.347

> <Coulomb>
45.870

> <VdW>
0.325

> <VdW6>
-6.161

> <VdW12>
6.486

> <Bond>
0.201

> <Angle>
1.485

> <Pdih>
3.662

> <Idih>
0.000

> <Tether>
0.000

$$$$
VeraChem MOL file


 20 19  0  0  0  0  0  0  0  0999 V2000     
   21.8701   17.8792   24.8781 N   0  3  0  0  0  0  0  0  0  0  0  0
   22.6854   18.4960   24.8062 H   0  0  0  0  0  0  0  0  0  0  0  0
   21.7352   17.6800   25.8749 H   0  0  0  0  0  0  0  0  0  0  0  0
   22.1225   16.9929   24.4296 H   0  0  0  0  0  0  0  0  0  0  0  0
   20.6348   18.4978   24.2553 C   0  0  0  0  0  0  0  0  0  0  0  0
   20.4075   19.4186   24.7994 H   0  0  0  0  0  0  0  0  0  0  0  0
   19.8024   17.8026   24.3944 H   0  0  0  0  0  0  0  0  0  0  0  0
   20.8041   18.8099   22.7575 C   0  0  0  0  0  0  0  0  0  0  0  0
   21.6509   19.4957   22.6211 H   0  0  0  0  0  0  0  0  0  0  0  0
   21.0479   17.8853   22.2174 H   0  0  0  0  0  0  0  0  0  0  0  0
   19.5244   19.4383   22.1622 C   0  0  0  0  0  0  0  0  0  0  0  0
   19.2805   20.3602   22.7083 H   0  0  0  0  0  0  0  0  0  0  0  0
   18.6782   18.7517   22.3050 H   0  0  0  0  0  0  0  0  0  0  0  0
   19.6828   19.7560   20.6583 C   0  0  0  0  0  0  0  0  0  0  0  0
   20.5271   20.4442   20.5111 H   0  0  0  0  0  0  0  0  0  0  0  0
   19.9248   18.8359   20.1079 H   0  0  0  0  0  0  0  0  0  0  0  0
   18.4021   20.3836   20.0679 C   0  0  0  0  0  0  0  0  0  0  0  0
   18.1530   21.3246   20.5756 H   0  0  0  0  0  0  0  0  0  0  0  0
   18.5340   20.6020   19.0002 H   0  0  0  0  0  0  0  0  0  0  0  0
   17.5461   19.7038   20.1691 H   0  0  0  0  0  0  0  0  0  0  0  0
  1  2  1  0  0  0  0
  1  3  1  0  0  0  0
  1  4  1  0  0  0  0
  1  5  1  0  0  0  0
  5  6  1  0  0  0  0
  5  7  1  0  0  0  0
  5  8  1  0  0  0  0
  8  9  1  0  0  0  0
  8 10  1  0  0  0  0
  8 11  1  0  0  0  0
 11 12  1  0  0  0  0
 11 13  1  0  0  0  0
 11 14  1  0  0  0  0
 14 15  1  0  0  0  0
 14 16  1  0  0  0  0
 14 17  1  0  0  0  0
 17 18  1  0  0  0  0
 17 19  1  0  0  0  0
 17 20  1  0  0  0  0
M  END
> <VConfSearch Rank>
17

> <Conf_Id>
72

> <Delta U+W>
0.000

> <U+W>
-11.778

> <U>
45.772

> <W>
-57.550

> <W(PB)>
-59.511

> <W(SA)>
1.961

> <Valence>
1.299

> <Coulomb>
44.177

> <VdW>
0.297

> <VdW6>
-3.490

> <VdW12>
3.786

> <Bond>
0.096

> <Angle>
0.381

> <Pdih>
0.822

> <Idih>
0.000

> <Tether>
0.000

$$$$
VeraChem MOL file


 20 19  0  0  0  0  0  0  0  0999 V2000     
   19.1645   16.7452   20.9903 N   0  3  0  0  0  0  0  0  0  0  0  0
   18.2310   16.8194   21.4068 H   0  0  0  0  0  0  0  0  0  0  0  0
   19.1131   17.1685   20.0583 H   0  0  0  0  0  0  0  0  0  0  0  0
   19.3501   15.7461   20.8529 H   0  0  0  0  0  0  0  0  0  0  0  0
   20.2238   17.4012   21.8529 C   0  0  0  0  0  0  0  0  0  0  0  0
   21.1920   17.2576   21.3657 H   0  0  0  0  0  0  0  0  0  0  0  0
   20.2437   16.8830   22.8155 H   0  0  0  0  0  0  0  0  0  0  0  0
   19.9754   18.9034   22.0788 C   0  0  0  0  0  0  0  0  0  0  0  0
   19.9402   19.4172   21.1089 H   0  0  0  0  0  0  0  0  0  0  0  0
   18.9942   19.0366   22.5516 H   0  0  0  0  0  0  0  0  0  0  0  0
   21.0803   19.5312   22.9610 C   0  0  0  0  0  0  0  0  0  0  0  0
   22.0603   19.3212   22.5103 H   0  0  0  0  0  0  0  0  0  0  0  0
   21.0848   19.0483   23.9480 H   0  0  0  0  0  0  0  0  0  0  0  0
   20.9363   21.0628   23.1348 C   0  0  0  0  0  0  0  0  0  0  0  0
   21.8121   21.4395   23.6817 H   0  0  0  0  0  0  0  0  0  0  0  0
   20.9553   21.5522   22.1509 H   0  0  0  0  0  0  0  0  0  0  0  0
   19.6570   21.4776   23.8970 C   0  0  0  0  0  0  0  0  0  0  0  0
   19.5998   20.9795   24.8735 H   0  0  0  0  0  0  0  0  0  0  0  0
   19.6489   22.5611   24.0726 H   0  0  0  0  0  0  0  0  0  0  0  0
   18.7511   21.2293   23.3303 H   0  0  0  0  0  0  0  0  0  0  0  0
  1  2  1  0  0  0  0
  1  3  1  0  0  0  0
  1  4  1  0  0  0  0
  1  5  1  0  0  0  0
  5  6  1  0  0  0  0
  5  7  1  0  0  0  0
  5  8  1  0  0  0  0
  8  9  1  0  0  0  0
  8 10  1  0  0  0  0
  8 11  1  0  0  0  0
 11 12  1  0  0  0  0
 11 13  1  0  0  0  0
 11 14  1  0  0  0  0
 14 15  1  0  0  0  0
 14 16  1  0  0  0  0
 14 17  1  0  0  0  0
 17 18  1  0  0  0  0
 17 19  1  0  0  0  0
 17 20  1  0  0  0  0
M  END
> <VConfSearch Rank>
18

> <Conf_Id>
42

> <Delta U+W>
0.508

> <U+W>
-11.270

> <U>
46.486

> <W>
-57.756

> <W(PB)>
-59.705

> <W(SA)>
1.949

> <Valence>
1.806

> <Coulomb>
44.248

> <VdW>
0.433

> <VdW6>
-4.089

> <VdW12>
4.522

> <Bond>
0.131

> <Angle>
0.628

> <Pdih>
1.047

> <Idih>
0.000

> <Tether>
0.000

$$$$
VeraChem MOL file


 20 19  0  0  0  0  0  0  0  0999 V2000     
   22.9972   18.5521   21.6412 N   0  3  0  0  0  0  0  0  0  0  0  0
   22.8509   17.6319   21.2143 H   0  0  0  0  0  0  0  0  0  0  0  0
   22.9240   19.2471   20.8916 H   0  0  0  0  0  0  0  0  0  0  0  0
   23.9670   18.5746   21.9737 H   0  0  0  0  0  0  0  0  0  0  0  0
   22.0117   18.8202   22.7609 C   0  0  0  0  0  0  0  0  0  0  0  0
   22.2440   19.7997   23.1876 H   0  0  0  0  0  0  0  0  0  0  0  0
   22.1662   18.0634   23.5347 H   0  0  0  0  0  0  0  0  0  0  0  0
   20.5448   18.7931   22.2955 C   0  0  0  0  0  0  0  0  0  0  0  0
   20.4057   19.5437   21.5072 H   0  0  0  0  0  0  0  0  0  0  0  0
   20.3204   17.8133   21.8533 H   0  0  0  0  0  0  0  0  0  0  0  0
   19.5756   19.0690   23.4692 C   0  0  0  0  0  0  0  0  0  0  0  0
   19.7695   20.0687   23.8823 H   0  0  0  0  0  0  0  0  0  0  0  0
   19.7822   18.3553   24.2790 H   0  0  0  0  0  0  0  0  0  0  0  0
   18.0823   18.9512   23.0782 C   0  0  0  0  0  0  0  0  0  0  0  0
   17.8786   17.9447   22.6867 H   0  0  0  0  0  0  0  0  0  0  0  0
   17.4709   19.0570   23.9854 H   0  0  0  0  0  0  0  0  0  0  0  0
   17.6312   20.0111   22.0473 C   0  0  0  0  0  0  0  0  0  0  0  0
   18.1288   19.8705   21.0798 H   0  0  0  0  0  0  0  0  0  0  0  0
   16.5494   19.9423   21.8742 H   0  0  0  0  0  0  0  0  0  0  0  0
   17.8498   21.0264   22.4028 H   0  0  0  0  0  0  0  0  0  0  0  0
  1  2  1  0  0  0  0
  1  3  1  0  0  0  0
  1  4  1  0  0  0  0
  1  5  1  0  0  0  0
  5  6  1  0  0  0  0
  5  7  1  0  0  0  0
  5  8  1  0  0  0  0
  8  9  1  0  0  0  0
  8 10  1  0  0  0  0
  8 11  1  0  0  0  0
 11 12  1  0  0  0  0
 11 13  1  0  0  0  0
 11 14  1  0  0  0  0
 14 15  1  0  0  0  0
 14 16  1  0  0  0  0
 14 17  1  0  0  0  0
 17 18  1  0  0  0  0
 17 19  1  0  0  0  0
 17 20  1  0  0  0  0
M  END
> <VConfSearch Rank>
19

> <Conf_Id>
41

> <Delta U+W>
0.515

> <U+W>
-11.263

> <U>
46.486

> <W>
-57.749

> <W(PB)>
-59.685

> <W(SA)>
1.936

> <Valence>
1.806

> <Coulomb>
44.248

> <VdW>
0.433

> <VdW6>
-4.089

> <VdW12>
4.522

> <Bond>
0.131

> <Angle>
0.628

> <Pdih>
1.047

> <Idih>
0.000

> <Tether>
0.000

$$$$
VeraChem MOL file


 20 19  0  0  0  0  0  0  0  0999 V2000     
   19.1328   18.6093   24.9844 N   0  3  0  0  0  0  0  0  0  0  0  0
   19.2493   18.4814   25.9951 H   0  0  0  0  0  0  0  0  0  0  0  0
   18.8726   19.5887   24.8360 H   0  0  0  0  0  0  0  0  0  0  0  0
   18.3310   18.0368   24.7023 H   0  0  0  0  0  0  0  0  0  0  0  0
   20.3895   18.2364   24.2215 C   0  0  0  0  0  0  0  0  0  0  0  0
   20.6266   17.1968   24.4636 H   0  0  0  0  0  0  0  0  0  0  0  0
   21.2070   18.8647   24.5851 H   0  0  0  0  0  0  0  0  0  0  0  0
   20.2601   18.3865   22.6929 C   0  0  0  0  0  0  0  0  0  0  0  0
   21.1717   17.9829   22.2350 H   0  0  0  0  0  0  0  0  0  0  0  0
   19.4273   17.7679   22.3332 H   0  0  0  0  0  0  0  0  0  0  0  0
   20.0592   19.8580   22.2509 C   0  0  0  0  0  0  0  0  0  0  0  0
   20.9073   20.4664   22.5946 H   0  0  0  0  0  0  0  0  0  0  0  0
   19.1662   20.2681   22.7407 H   0  0  0  0  0  0  0  0  0  0  0  0
   19.8904   20.0245   20.7210 C   0  0  0  0  0  0  0  0  0  0  0  0
   19.0346   19.4285   20.3742 H   0  0  0  0  0  0  0  0  0  0  0  0
   19.6406   21.0731   20.5065 H   0  0  0  0  0  0  0  0  0  0  0  0
   21.1526   19.6401   19.9156 C   0  0  0  0  0  0  0  0  0  0  0  0
   21.3733   18.5687   19.9969 H   0  0  0  0  0  0  0  0  0  0  0  0
   21.0124   19.8669   18.8508 H   0  0  0  0  0  0  0  0  0  0  0  0
   22.0300   20.2000   20.2646 H   0  0  0  0  0  0  0  0  0  0  0  0
  1  2  1  0  0  0  0
  1  3  1  0  0  0  0
  1  4  1  0  0  0  0
  1  5  1  0  0  0  0
  5  6  1  0  0  0  0
  5  7  1  0  0  0  0
  5  8  1  0  0  0  0
  8  9  1  0  0  0  0
  8 10  1  0  0  0  0
  8 11  1  0  0  0  0
 11 12  1  0  0  0  0
 11 13  1  0  0  0  0
 11 14  1  0  0  0  0
 14 15  1  0  0  0  0
 14 16  1  0  0  0  0
 14 17  1  0  0  0  0
 17 18  1  0  0  0  0
 17 19  1  0  0  0  0
 17 20  1  0  0  0  0
M  END
> <VConfSearch Rank>
20

> <Conf_Id>
33

> <Delta U+W>
0.703

> <U+W>
-11.075

> <U>
47.080

> <W>
-58.154

> <W(PB)>
-60.053

> <W(SA)>
1.899

> <Valence>
1.943

> <Coulomb>
44.572

> <VdW>
0.565

> <VdW6>
-4.575

> <VdW12>
5.139

> <Bond>
0.158

> <Angle>
0.700

> <Pdih>
1.085

> <Idih>
0.000

> <Tether>
0.000

$$$$
VeraChem MOL file


 20 19  0  0  0  0  0  0  0  0999 V2000     
   18.4606   21.2960   22.7705 N   0  3  0  0  0  0  0  0  0  0  0  0
   18.0522   22.1757   22.4375 H   0  0  0  0  0  0  0  0  0  0  0  0
   17.7582   20.8491   23.3681 H   0  0  0  0  0  0  0  0  0  0  0  0
   19.2541   21.5434   23.3689 H   0  0  0  0  0  0  0  0  0  0  0  0
   18.8776   20.3987   21.6210 C   0  0  0  0  0  0  0  0  0  0  0  0
   19.6064   20.9415   21.0130 H   0  0  0  0  0  0  0  0  0  0  0  0
   17.9918   20.2157   21.0066 H   0  0  0  0  0  0  0  0  0  0  0  0
   19.4758   19.0498   22.0666 C   0  0  0  0  0  0  0  0  0  0  0  0
   18.7483   18.5148   22.6913 H   0  0  0  0  0  0  0  0  0  0  0  0
   19.6316   18.4363   21.1706 H   0  0  0  0  0  0  0  0  0  0  0  0
   20.8147   19.2118   22.8297 C   0  0  0  0  0  0  0  0  0  0  0  0
   20.6608   19.8563   23.7052 H   0  0  0  0  0  0  0  0  0  0  0  0
   21.5445   19.7276   22.1905 H   0  0  0  0  0  0  0  0  0  0  0  0
   21.4126   17.8695   23.3173 C   0  0  0  0  0  0  0  0  0  0  0  0
   22.2919   18.0819   23.9415 H   0  0  0  0  0  0  0  0  0  0  0  0
   20.6914   17.3558   23.9684 H   0  0  0  0  0  0  0  0  0  0  0  0
   21.8364   16.9287   22.1663 C   0  0  0  0  0  0  0  0  0  0  0  0
   22.5339   17.4298   21.4826 H   0  0  0  0  0  0  0  0  0  0  0  0
   22.3394   16.0378   22.5642 H   0  0  0  0  0  0  0  0  0  0  0  0
   20.9715   16.5856   21.5853 H   0  0  0  0  0  0  0  0  0  0  0  0
  1  2  1  0  0  0  0
  1  3  1  0  0  0  0
  1  4  1  0  0  0  0
  1  5  1  0  0  0  0
  5  6  1  0  0  0  0
  5  7  1  0  0  0  0
  5  8  1  0  0  0  0
  8  9  1  0  0  0  0
  8 10  1  0  0  0  0
  8 11  1  0  0  0  0
 11 12  1  0  0  0  0
 11 13  1  0  0  0  0
 11 14  1  0  0  0  0
 14 15  1  0  0  0  0
 14 16  1  0  0  0  0
 14 17  1  0  0  0  0
 17 18  1  0  0  0  0
 17 19  1  0  0  0  0
 17 20  1  0  0  0  0
M  END
> <VConfSearch Rank>
21

> <Conf_Id>
24

> <Delta U+W>
0.847

> <U+W>
-10.931

> <U>
47.080

> <W>
-58.011

> <W(PB)>
-59.914

> <W(SA)>
1.903

> <Valence>
1.943

> <Coulomb>
44.572

> <VdW>
0.565

> <VdW6>
-4.575

> <VdW12>
5.140

> <Bond>
0.158

> <Angle>
0.700

> <Pdih>
1.085

> <Idih>
0.000

> <Tether>
0.000

$$$$
VeraChem MOL file


 20 19  0  0  0  0  0  0  0  0999 V2000     
   21.3613   17.5294   20.6981 N   0  3  0  0  0  0  0  0  0  0  0  0
   21.0391   17.2885   19.7548 H   0  0  0  0  0  0  0  0  0  0  0  0
   22.1463   18.1788   20.5873 H   0  0  0  0  0  0  0  0  0  0  0  0
   21.7371   16.6704   21.1119 H   0  0  0  0  0  0  0  0  0  0  0  0
   20.2490   18.1231   21.5386 C   0  0  0  0  0  0  0  0  0  0  0  0
   19.4374   17.3924   21.5903 H   0  0  0  0  0  0  0  0  0  0  0  0
   19.8780   19.0134   21.0242 H   0  0  0  0  0  0  0  0  0  0  0  0
   20.7005   18.4972   22.9630 C   0  0  0  0  0  0  0  0  0  0  0  0
   21.1095   17.6052   23.4558 H   0  0  0  0  0  0  0  0  0  0  0  0
   21.5214   19.2239   22.9121 H   0  0  0  0  0  0  0  0  0  0  0  0
   19.5464   19.0612   23.8290 C   0  0  0  0  0  0  0  0  0  0  0  0
   19.9337   19.2946   24.8304 H   0  0  0  0  0  0  0  0  0  0  0  0
   18.7917   18.2755   23.9727 H   0  0  0  0  0  0  0  0  0  0  0  0
   18.8519   20.3196   23.2482 C   0  0  0  0  0  0  0  0  0  0  0  0
   18.3660   20.0783   22.2930 H   0  0  0  0  0  0  0  0  0  0  0  0
   18.0434   20.6193   23.9298 H   0  0  0  0  0  0  0  0  0  0  0  0
   19.8103   21.5169   23.0560 C   0  0  0  0  0  0  0  0  0  0  0  0
   19.2542   22.4064   22.7327 H   0  0  0  0  0  0  0  0  0  0  0  0
   20.3249   21.7653   23.9932 H   0  0  0  0  0  0  0  0  0  0  0  0
   20.5690   21.3069   22.2919 H   0  0  0  0  0  0  0  0  0  0  0  0
  1  2  1  0  0  0  0
  1  3  1  0  0  0  0
  1  4  1  0  0  0  0
  1  5  1  0  0  0  0
  5  6  1  0  0  0  0
  5  7  1  0  0  0  0
  5  8  1  0  0  0  0
  8  9  1  0  0  0  0
  8 10  1  0  0  0  0
  8 11  1  0  0  0  0
 11 12  1  0  0  0  0
 11 13  1  0  0  0  0
 11 14  1  0  0  0  0
 14 15  1  0  0  0  0
 14 16  1  0  0  0  0
 14 17  1  0  0  0  0
 17 18  1  0  0  0  0
 17 19  1  0  0  0  0
 17 20  1  0  0  0  0
M  END
> <VConfSearch Rank>
22

> <Conf_Id>
64

> <Delta U+W>
0.707

> <U+W>
-11.070

> <U>
47.077

> <W>
-58.148

> <W(PB)>
-60.054

> <W(SA)>
1.906

> <Valence>
2.039

> <Coulomb>
44.655

> <VdW>
0.383

> <VdW6>
-4.912

> <VdW12>
5.295

> <Bond>
0.159

> <Angle>
0.856

> <Pdih>
1.024

> <Idih>
0.000

> <Tether>
0.000

$$$$
VeraChem MOL file


 20 19  0  0  0  0  0  0  0  0999 V2000     
   18.4315   19.9697   20.5971 N   0  3  0  0  0  0  0  0  0  0  0  0
   18.8719   20.4084   19.7823 H   0  0  0  0  0  0  0  0  0  0  0  0
   18.1876   19.0114   20.3281 H   0  0  0  0  0  0  0  0  0  0  0  0
   17.5495   20.4663   20.7614 H   0  0  0  0  0  0  0  0  0  0  0  0
   19.3327   20.0044   21.8149 C   0  0  0  0  0  0  0  0  0  0  0  0
   18.7896   19.5500   22.6476 H   0  0  0  0  0  0  0  0  0  0  0  0
   19.5273   21.0516   22.0617 H   0  0  0  0  0  0  0  0  0  0  0  0
   20.6675   19.2660   21.6012 C   0  0  0  0  0  0  0  0  0  0  0  0
   20.4731   18.2169   21.3444 H   0  0  0  0  0  0  0  0  0  0  0  0
   21.1854   19.7033   20.7373 H   0  0  0  0  0  0  0  0  0  0  0  0
   21.6007   19.3453   22.8353 C   0  0  0  0  0  0  0  0  0  0  0  0
   21.8851   20.3938   23.0005 H   0  0  0  0  0  0  0  0  0  0  0  0
   22.5342   18.8111   22.6110 H   0  0  0  0  0  0  0  0  0  0  0  0
   20.9958   18.7803   24.1461 C   0  0  0  0  0  0  0  0  0  0  0  0
   21.7315   18.9043   24.9532 H   0  0  0  0  0  0  0  0  0  0  0  0
   20.1190   19.3708   24.4450 H   0  0  0  0  0  0  0  0  0  0  0  0
   20.6088   17.2870   24.0506 C   0  0  0  0  0  0  0  0  0  0  0  0
   21.4642   16.6768   23.7329 H   0  0  0  0  0  0  0  0  0  0  0  0
   20.2744   16.9133   25.0270 H   0  0  0  0  0  0  0  0  0  0  0  0
   19.7893   17.1280   23.3387 H   0  0  0  0  0  0  0  0  0  0  0  0
  1  2  1  0  0  0  0
  1  3  1  0  0  0  0
  1  4  1  0  0  0  0
  1  5  1  0  0  0  0
  5  6  1  0  0  0  0
  5  7  1  0  0  0  0
  5  8  1  0  0  0  0
  8  9  1  0  0  0  0
  8 10  1  0  0  0  0
  8 11  1  0  0  0  0
 11 12  1  0  0  0  0
 11 13  1  0  0  0  0
 11 14  1  0  0  0  0
 14 15  1  0  0  0  0
 14 16  1  0  0  0  0
 14 17  1  0  0  0  0
 17 18  1  0  0  0  0
 17 19  1  0  0  0  0
 17 20  1  0  0  0  0
M  END
> <VConfSearch Rank>
23

> <Conf_Id>
22

> <Delta U+W>
0.731

> <U+W>
-11.047

> <U>
47.078

> <W>
-58.125

> <W(PB)>
-60.031

> <W(SA)>
1.906

> <Valence>
2.039

> <Coulomb>
44.655

> <VdW>
0.383

> <VdW6>
-4.913

> <VdW12>
5.296

> <Bond>
0.159

> <Angle>
0.856

> <Pdih>
1.024

> <Idih>
0.000

> <Tether>
0.000

$$$$
VeraChem MOL file


 20 19  0  0  0  0  0  0  0  0999 V2000     
   17.9475   19.6213   20.9354 N   0  3  0  0  0  0  0  0  0  0  0  0
   18.1926   19.1151   20.0786 H   0  0  0  0  0  0  0  0  0  0  0  0
   17.1042   19.1798   21.3151 H   0  0  0  0  0  0  0  0  0  0  0  0
   17.6844   20.5717   20.6544 H   0  0  0  0  0  0  0  0  0  0  0  0
   19.0851   19.6243   21.9366 C   0  0  0  0  0  0  0  0  0  0  0  0
   18.7666   20.2011   22.8091 H   0  0  0  0  0  0  0  0  0  0  0  0
   19.9331   20.1339   21.4734 H   0  0  0  0  0  0  0  0  0  0  0  0
   19.5080   18.2108   22.3747 C   0  0  0  0  0  0  0  0  0  0  0  0
   18.6196   17.6698   22.7270 H   0  0  0  0  0  0  0  0  0  0  0  0
   19.8842   17.6558   21.5051 H   0  0  0  0  0  0  0  0  0  0  0  0
   20.5714   18.1943   23.5021 C   0  0  0  0  0  0  0  0  0  0  0  0
   20.7263   17.1462   23.7939 H   0  0  0  0  0  0  0  0  0  0  0  0
   20.1815   18.6970   24.3980 H   0  0  0  0  0  0  0  0  0  0  0  0
   21.9482   18.7906   23.1100 C   0  0  0  0  0  0  0  0  0  0  0  0
   22.7218   18.3007   23.7180 H   0  0  0  0  0  0  0  0  0  0  0  0
   22.1862   18.5461   22.0653 H   0  0  0  0  0  0  0  0  0  0  0  0
   22.0602   20.3158   23.3428 C   0  0  0  0  0  0  0  0  0  0  0  0
   21.3800   20.8854   22.7011 H   0  0  0  0  0  0  0  0  0  0  0  0
   21.8383   20.5720   24.3869 H   0  0  0  0  0  0  0  0  0  0  0  0
   23.0795   20.6609   23.1263 H   0  0  0  0  0  0  0  0  0  0  0  0
  1  2  1  0  0  0  0
  1  3  1  0  0  0  0
  1  4  1  0  0  0  0
  1  5  1  0  0  0  0
  5  6  1  0  0  0  0
  5  7  1  0  0  0  0
  5  8  1  0  0  0  0
  8  9  1  0  0  0  0
  8 10  1  0  0  0  0
  8 11  1  0  0  0  0
 11 12  1  0  0  0  0
 11 13  1  0  0  0  0
 11 14  1  0  0  0  0
 14 15  1  0  0  0  0
 14 16  1  0  0  0  0
 14 17  1  0  0  0  0
 17 18  1  0  0  0  0
 17 19  1  0  0  0  0
 17 20  1  0  0  0  0
M  END
> <VConfSearch Rank>
24

> <Conf_Id>
61

> <Delta U+W>
2.669

> <U+W>
-9.108

> <U>
48.916

> <W>
-58.025

> <W(PB)>
-59.935

> <W(SA)>
1.911

> <Valence>
3.785

> <Coulomb>
44.716

> <VdW>
0.415

> <VdW6>
-4.836

> <VdW12>
5.251

> <Bond>
0.175

> <Angle>
1.195

> <Pdih>
2.415

> <Idih>
0.000

> <Tether>
0.000

$$$$
VeraChem MOL file


 20 19  0  0  0  0  0  0  0  0999 V2000     
   20.6876   17.3676   20.9625 N   0  3  0  0  0  0  0  0  0  0  0  0
   21.2699   17.1149   20.1571 H   0  0  0  0  0  0  0  0  0  0  0  0
   20.0657   16.5726   21.1398 H   0  0  0  0  0  0  0  0  0  0  0  0
   20.0989   18.1529   20.6731 H   0  0  0  0  0  0  0  0  0  0  0  0
   21.5278   17.7068   22.1789 C   0  0  0  0  0  0  0  0  0  0  0  0
   22.2100   18.5197   21.9158 H   0  0  0  0  0  0  0  0  0  0  0  0
   22.1286   16.8221   22.4070 H   0  0  0  0  0  0  0  0  0  0  0  0
   20.7103   18.0929   23.4295 C   0  0  0  0  0  0  0  0  0  0  0  0
   19.8501   17.4192   23.5398 H   0  0  0  0  0  0  0  0  0  0  0  0
   21.3438   17.9179   24.3092 H   0  0  0  0  0  0  0  0  0  0  0  0
   20.2466   19.5719   23.4654 C   0  0  0  0  0  0  0  0  0  0  0  0
   21.1236   20.2319   23.4128 H   0  0  0  0  0  0  0  0  0  0  0  0
   19.7811   19.7603   24.4428 H   0  0  0  0  0  0  0  0  0  0  0  0
   19.2439   19.9570   22.3524 C   0  0  0  0  0  0  0  0  0  0  0  0
   19.7370   19.9205   21.3729 H   0  0  0  0  0  0  0  0  0  0  0  0
   18.4155   19.2351   22.3295 H   0  0  0  0  0  0  0  0  0  0  0  0
   18.6772   21.3771   22.5645 C   0  0  0  0  0  0  0  0  0  0  0  0
   17.9754   21.6385   21.7619 H   0  0  0  0  0  0  0  0  0  0  0  0
   18.1386   21.4499   23.5184 H   0  0  0  0  0  0  0  0  0  0  0  0
   19.4798   22.1262   22.5672 H   0  0  0  0  0  0  0  0  0  0  0  0
  1  2  1  0  0  0  0
  1  3  1  0  0  0  0
  1  4  1  0  0  0  0
  1  5  1  0  0  0  0
  5  6  1  0  0  0  0
  5  7  1  0  0  0  0
  5  8  1  0  0  0  0
  8  9  1  0  0  0  0
  8 10  1  0  0  0  0
  8 11  1  0  0  0  0
 11 12  1  0  0  0  0
 11 13  1  0  0  0  0
 11 14  1  0  0  0  0
 14 15  1  0  0  0  0
 14 16  1  0  0  0  0
 14 17  1  0  0  0  0
 17 18  1  0  0  0  0
 17 19  1  0  0  0  0
 17 20  1  0  0  0  0
M  END
> <VConfSearch Rank>
25

> <Conf_Id>
69

> <Delta U+W>
2.811

> <U+W>
-8.967

> <U>
49.216

> <W>
-58.183

> <W(PB)>
-60.064

> <W(SA)>
1.881

> <Valence>
2.929

> <Coulomb>
46.006

> <VdW>
0.281

> <VdW6>
-4.909

> <VdW12>
5.190

> <Bond>
0.156

> <Angle>
0.974

> <Pdih>
1.799

> <Idih>
0.000

> <Tether>
0.000

$$$$
VeraChem MOL file


 20 19  0  0  0  0  0  0  0  0999 V2000     
   19.1876   17.0769   22.7378 N   0  3  0  0  0  0  0  0  0  0  0  0
   18.6504   17.9216   22.9496 H   0  0  0  0  0  0  0  0  0  0  0  0
   18.8605   16.7300   21.8306 H   0  0  0  0  0  0  0  0  0  0  0  0
   18.9281   16.3720   23.4359 H   0  0  0  0  0  0  0  0  0  0  0  0
   20.6812   17.3405   22.7340 C   0  0  0  0  0  0  0  0  0  0  0  0
   21.1716   16.3884   22.5132 H   0  0  0  0  0  0  0  0  0  0  0  0
   20.9831   17.6510   23.7379 H   0  0  0  0  0  0  0  0  0  0  0  0
   21.1394   18.3911   21.7007 C   0  0  0  0  0  0  0  0  0  0  0  0
   22.2032   18.2138   21.4940 H   0  0  0  0  0  0  0  0  0  0  0  0
   20.6177   18.2339   20.7473 H   0  0  0  0  0  0  0  0  0  0  0  0
   20.9852   19.8622   22.1651 C   0  0  0  0  0  0  0  0  0  0  0  0
   21.4457   20.5100   21.4063 H   0  0  0  0  0  0  0  0  0  0  0  0
   21.5607   20.0169   23.0883 H   0  0  0  0  0  0  0  0  0  0  0  0
   19.5230   20.3149   22.3869 C   0  0  0  0  0  0  0  0  0  0  0  0
   18.9163   20.0646   21.5053 H   0  0  0  0  0  0  0  0  0  0  0  0
   19.0904   19.7831   23.2436 H   0  0  0  0  0  0  0  0  0  0  0  0
   19.4322   21.8326   22.6540 C   0  0  0  0  0  0  0  0  0  0  0  0
   19.8188   22.4081   21.8028 H   0  0  0  0  0  0  0  0  0  0  0  0
   18.3900   22.1358   22.8188 H   0  0  0  0  0  0  0  0  0  0  0  0
   20.0089   22.1118   23.5455 H   0  0  0  0  0  0  0  0  0  0  0  0
  1  2  1  0  0  0  0
  1  3  1  0  0  0  0
  1  4  1  0  0  0  0
  1  5  1  0  0  0  0
  5  6  1  0  0  0  0
  5  7  1  0  0  0  0
  5  8  1  0  0  0  0
  8  9  1  0  0  0  0
  8 10  1  0  0  0  0
  8 11  1  0  0  0  0
 11 12  1  0  0  0  0
 11 13  1  0  0  0  0
 11 14  1  0  0  0  0
 14 15  1  0  0  0  0
 14 16  1  0  0  0  0
 14 17  1  0  0  0  0
 17 18  1  0  0  0  0
 17 19  1  0  0  0  0
 17 20  1  0  0  0  0
M  END
> <VConfSearch Rank>
26

> <Conf_Id>
26

> <Delta U+W>
2.809

> <U+W>
-8.969

> <U>
49.216

> <W>
-58.185

> <W(PB)>
-60.088

> <W(SA)>
1.903

> <Valence>
2.929

> <Coulomb>
46.006

> <VdW>
0.281

> <VdW6>
-4.909

> <VdW12>
5.190

> <Bond>
0.156

> <Angle>
0.974

> <Pdih>
1.799

> <Idih>
0.000

> <Tether>
0.000

$$$$
VeraChem MOL file


 20 19  0  0  0  0  0  0  0  0999 V2000     
   18.3489   20.1236   21.1285 N   0  3  0  0  0  0  0  0  0  0  0  0
   18.4971   20.7518   21.9237 H   0  0  0  0  0  0  0  0  0  0  0  0
   18.6190   20.6361   20.2833 H   0  0  0  0  0  0  0  0  0  0  0  0
   17.3399   19.9527   21.0643 H   0  0  0  0  0  0  0  0  0  0  0  0
   19.1308   18.8333   21.2795 C   0  0  0  0  0  0  0  0  0  0  0  0
   18.9021   18.2024   20.4163 H   0  0  0  0  0  0  0  0  0  0  0  0
   18.7732   18.3222   22.1771 H   0  0  0  0  0  0  0  0  0  0  0  0
   20.6562   19.0404   21.3720 C   0  0  0  0  0  0  0  0  0  0  0  0
   21.1454   18.0584   21.4014 H   0  0  0  0  0  0  0  0  0  0  0  0
   21.0097   19.5235   20.4515 H   0  0  0  0  0  0  0  0  0  0  0  0
   21.1051   19.8826   22.5952 C   0  0  0  0  0  0  0  0  0  0  0  0
   20.7464   20.9140   22.4778 H   0  0  0  0  0  0  0  0  0  0  0  0
   22.2019   19.9482   22.5959 H   0  0  0  0  0  0  0  0  0  0  0  0
   20.6314   19.3395   23.9677 C   0  0  0  0  0  0  0  0  0  0  0  0
   20.9848   20.0201   24.7550 H   0  0  0  0  0  0  0  0  0  0  0  0
   19.5347   19.3558   24.0253 H   0  0  0  0  0  0  0  0  0  0  0  0
   21.1461   17.9147   24.2740 C   0  0  0  0  0  0  0  0  0  0  0  0
   22.2407   17.8673   24.2066 H   0  0  0  0  0  0  0  0  0  0  0  0
   20.8591   17.6121   25.2893 H   0  0  0  0  0  0  0  0  0  0  0  0
   20.7265   17.1768   23.5789 H   0  0  0  0  0  0  0  0  0  0  0  0
  1  2  1  0  0  0  0
  1  3  1  0  0  0  0
  1  4  1  0  0  0  0
  1  5  1  0  0  0  0
  5  6  1  0  0  0  0
  5  7  1  0  0  0  0
  5  8  1  0  0  0  0
  8  9  1  0  0  0  0
  8 10  1  0  0  0  0
  8 11  1  0  0  0  0
 11 12  1  0  0  0  0
 11 13  1  0  0  0  0
 11 14  1  0  0  0  0
 14 15  1  0  0  0  0
 14 16  1  0  0  0  0
 14 17  1  0  0  0  0
 17 18  1  0  0  0  0
 17 19  1  0  0  0  0
 17 20  1  0  0  0  0
M  END
> <VConfSearch Rank>
27

> <Conf_Id>
2

> <Delta U+W>
0.994

> <U+W>
-10.784

> <U>
47.562

> <W>
-58.346

> <W(PB)>
-60.221

> <W(SA)>
1.875

> <Valence>
2.149

> <Coulomb>
45.034

> <VdW>
0.378

> <VdW6>
-5.599

> <VdW12>
5.977

> <Bond>
0.185

> <Angle>
0.935

> <Pdih>
1.028

> <Idih>
0.000

> <Tether>
0.000

$$$$
VeraChem MOL file


 20 19  0  0  0  0  0  0  0  0999 V2000     
   17.8627   18.3952   22.2442 N   0  3  0  0  0  0  0  0  0  0  0  0
   17.6801   17.5165   21.7496 H   0  0  0  0  0  0  0  0  0  0  0  0
   18.1605   18.1519   23.1934 H   0  0  0  0  0  0  0  0  0  0  0  0
   16.9648   18.8834   22.3265 H   0  0  0  0  0  0  0  0  0  0  0  0
   18.9001   19.2393   21.5297 C   0  0  0  0  0  0  0  0  0  0  0  0
   19.0231   20.1711   22.0878 H   0  0  0  0  0  0  0  0  0  0  0  0
   18.5047   19.4862   20.5406 H   0  0  0  0  0  0  0  0  0  0  0  0
   20.2668   18.5418   21.3750 C   0  0  0  0  0  0  0  0  0  0  0  0
   20.1375   17.6252   20.7844 H   0  0  0  0  0  0  0  0  0  0  0  0
   20.9287   19.1876   20.7840 H   0  0  0  0  0  0  0  0  0  0  0  0
   20.9506   18.1889   22.7222 C   0  0  0  0  0  0  0  0  0  0  0  0
   21.9265   17.7291   22.5134 H   0  0  0  0  0  0  0  0  0  0  0  0
   20.3630   17.4168   23.2367 H   0  0  0  0  0  0  0  0  0  0  0  0
   21.1533   19.3888   23.6825 C   0  0  0  0  0  0  0  0  0  0  0  0
   20.1818   19.8049   23.9818 H   0  0  0  0  0  0  0  0  0  0  0  0
   21.6222   19.0229   24.6067 H   0  0  0  0  0  0  0  0  0  0  0  0
   22.0360   20.5087   23.0864 C   0  0  0  0  0  0  0  0  0  0  0  0
   21.5541   20.9852   22.2236 H   0  0  0  0  0  0  0  0  0  0  0  0
   22.2221   21.2907   23.8339 H   0  0  0  0  0  0  0  0  0  0  0  0
   23.0086   20.1152   22.7634 H   0  0  0  0  0  0  0  0  0  0  0  0
  1  2  1  0  0  0  0
  1  3  1  0  0  0  0
  1  4  1  0  0  0  0
  1  5  1  0  0  0  0
  5  6  1  0  0  0  0
  5  7  1  0  0  0  0
  5  8  1  0  0  0  0
  8  9  1  0  0  0  0
  8 10  1  0  0  0  0
  8 11  1  0  0  0  0
 11 12  1  0  0  0  0
 11 13  1  0  0  0  0
 11 14  1  0  0  0  0
 14 15  1  0  0  0  0
 14 16  1  0  0  0  0
 14 17  1  0  0  0  0
 17 18  1  0  0  0  0
 17 19  1  0  0  0  0
 17 20  1  0  0  0  0
M  END
> <VConfSearch Rank>
28

> <Conf_Id>
1

> <Delta U+W>
1.032

> <U+W>
-10.746

> <U>
47.562

> <W>
-58.308

> <W(PB)>
-60.184

> <W(SA)>
1.877

> <Valence>
2.149

> <Coulomb>
45.035

> <VdW>
0.378

> <VdW6>
-5.599

> <VdW12>
5.978

> <Bond>
0.185

> <Angle>
0.935

> <Pdih>
1.028

> <Idih>
0.000

> <Tether>
0.000

$$$$
VeraChem MOL file


 20 19  0  0  0  0  0  0  0  0999 V2000     
   21.2895   17.9452   24.2096 N   0  3  0  0  0  0  0  0  0  0  0  0
   22.2590   18.1790   24.4451 H   0  0  0  0  0  0  0  0  0  0  0  0
   20.6938   18.6639   24.6308 H   0  0  0  0  0  0  0  0  0  0  0  0
   21.0726   17.0617   24.6827 H   0  0  0  0  0  0  0  0  0  0  0  0
   21.0805   17.8473   22.7108 C   0  0  0  0  0  0  0  0  0  0  0  0
   20.0410   17.5668   22.5339 H   0  0  0  0  0  0  0  0  0  0  0  0
   21.7147   17.0359   22.3432 H   0  0  0  0  0  0  0  0  0  0  0  0
   21.4247   19.1438   21.9472 C   0  0  0  0  0  0  0  0  0  0  0  0
   22.4722   19.3958   22.1591 H   0  0  0  0  0  0  0  0  0  0  0  0
   21.3742   18.9539   20.8669 H   0  0  0  0  0  0  0  0  0  0  0  0
   20.5330   20.3638   22.3034 C   0  0  0  0  0  0  0  0  0  0  0  0
   21.0948   21.2750   22.0552 H   0  0  0  0  0  0  0  0  0  0  0  0
   20.3594   20.4138   23.3860 H   0  0  0  0  0  0  0  0  0  0  0  0
   19.1816   20.4328   21.5465 C   0  0  0  0  0  0  0  0  0  0  0  0
   18.6870   21.3782   21.8104 H   0  0  0  0  0  0  0  0  0  0  0  0
   19.3649   20.4794   20.4639 H   0  0  0  0  0  0  0  0  0  0  0  0
   18.2122   19.2700   21.8536 C   0  0  0  0  0  0  0  0  0  0  0  0
   18.0961   19.1223   22.9350 H   0  0  0  0  0  0  0  0  0  0  0  0
   17.2192   19.4804   21.4358 H   0  0  0  0  0  0  0  0  0  0  0  0
   18.5588   18.3317   21.4047 H   0  0  0  0  0  0  0  0  0  0  0  0
  1  2  1  0  0  0  0
  1  3  1  0  0  0  0
  1  4  1  0  0  0  0
  1  5  1  0  0  0  0
  5  6  1  0  0  0  0
  5  7  1  0  0  0  0
  5  8  1  0  0  0  0
  8  9  1  0  0  0  0
  8 10  1  0  0  0  0
  8 11  1  0  0  0  0
 11 12  1  0  0  0  0
 11 13  1  0  0  0  0
 11 14  1  0  0  0  0
 14 15  1  0  0  0  0
 14 16  1  0  0  0  0
 14 17  1  0  0  0  0
 17 18  1  0  0  0  0
 17 19  1  0  0  0  0
 17 20  1  0  0  0  0
M  END
> <VConfSearch Rank>
29

> <Conf_Id>
80

> <Delta U+W>
2.920

> <U+W>
-8.857

> <U>
49.434

> <W>
-58.292

> <W(PB)>
-60.170

> <W(SA)>
1.879

> <Valence>
3.798

> <Coulomb>
45.253

> <VdW>
0.384

> <VdW6>
-5.595

> <VdW12>
5.979

> <Bond>
0.198

> <Angle>
1.368

> <Pdih>
2.231

> <Idih>
0.000

> <Tether>
0.000

$$$$
VeraChem MOL file


 20 19  0  0  0  0  0  0  0  0999 V2000     
   21.1741   20.6282   20.9177 N   0  3  0  0  0  0  0  0  0  0  0  0
   21.1241   21.6399   21.0727 H   0  0  0  0  0  0  0  0  0  0  0  0
   21.8582   20.4747   20.1696 H   0  0  0  0  0  0  0  0  0  0  0  0
   20.2633   20.3320   20.5553 H   0  0  0  0  0  0  0  0  0  0  0  0
   21.5471   19.8810   22.1836 C   0  0  0  0  0  0  0  0  0  0  0  0
   22.5429   20.2189   22.4830 H   0  0  0  0  0  0  0  0  0  0  0  0
   21.6123   18.8193   21.9404 H   0  0  0  0  0  0  0  0  0  0  0  0
   20.5642   20.1051   23.3526 C   0  0  0  0  0  0  0  0  0  0  0  0
   20.9692   19.6420   24.2620 H   0  0  0  0  0  0  0  0  0  0  0  0
   20.5204   21.1829   23.5585 H   0  0  0  0  0  0  0  0  0  0  0  0
   19.1240   19.5835   23.0997 C   0  0  0  0  0  0  0  0  0  0  0  0
   18.7995   19.8215   22.0786 H   0  0  0  0  0  0  0  0  0  0  0  0
   18.4440   20.1399   23.7596 H   0  0  0  0  0  0  0  0  0  0  0  0
   18.9129   18.0740   23.3843 C   0  0  0  0  0  0  0  0  0  0  0  0
   19.1481   17.8586   24.4360 H   0  0  0  0  0  0  0  0  0  0  0  0
   17.8448   17.8465   23.2607 H   0  0  0  0  0  0  0  0  0  0  0  0
   19.7245   17.1278   22.4723 C   0  0  0  0  0  0  0  0  0  0  0  0
   20.7923   17.1530   22.7198 H   0  0  0  0  0  0  0  0  0  0  0  0
   19.3876   16.0911   22.6016 H   0  0  0  0  0  0  0  0  0  0  0  0
   19.6010   17.3906   21.4138 H   0  0  0  0  0  0  0  0  0  0  0  0
  1  2  1  0  0  0  0
  1  3  1  0  0  0  0
  1  4  1  0  0  0  0
  1  5  1  0  0  0  0
  5  6  1  0  0  0  0
  5  7  1  0  0  0  0
  5  8  1  0  0  0  0
  8  9  1  0  0  0  0
  8 10  1  0  0  0  0
  8 11  1  0  0  0  0
 11 12  1  0  0  0  0
 11 13  1  0  0  0  0
 11 14  1  0  0  0  0
 14 15  1  0  0  0  0
 14 16  1  0  0  0  0
 14 17  1  0  0  0  0
 17 18  1  0  0  0  0
 17 19  1  0  0  0  0
 17 20  1  0  0  0  0
M  END
> <VConfSearch Rank>
30

> <Conf_Id>
65

> <Delta U+W>
2.949

> <U+W>
-8.829

> <U>
49.435

> <W>
-58.263

> <W(PB)>
-60.125

> <W(SA)>
1.862

> <Valence>
3.797

> <Coulomb>
45.253

> <VdW>
0.384

> <VdW6>
-5.596

> <VdW12>
5.980

> <Bond>
0.198

> <Angle>
1.369

> <Pdih>
2.230

> <Idih>
0.000

> <Tether>
0.000

$$$$
VeraChem MOL file


 20 19  0  0  0  0  0  0  0  0999 V2000     
   19.4480   18.3000   24.0627 N   0  3  0  0  0  0  0  0  0  0  0  0
   18.5729   18.2290   24.5927 H   0  0  0  0  0  0  0  0  0  0  0  0
   19.2625   17.9504   23.1177 H   0  0  0  0  0  0  0  0  0  0  0  0
   20.1147   17.6565   24.5006 H   0  0  0  0  0  0  0  0  0  0  0  0
   19.9750   19.7216   24.0328 C   0  0  0  0  0  0  0  0  0  0  0  0
   20.1490   20.0196   25.0704 H   0  0  0  0  0  0  0  0  0  0  0  0
   19.2019   20.3737   23.6178 H   0  0  0  0  0  0  0  0  0  0  0  0
   21.2843   19.8878   23.2351 C   0  0  0  0  0  0  0  0  0  0  0  0
   21.7876   20.7912   23.6045 H   0  0  0  0  0  0  0  0  0  0  0  0
   21.9643   19.0551   23.4588 H   0  0  0  0  0  0  0  0  0  0  0  0
   21.1089   20.0381   21.7000 C   0  0  0  0  0  0  0  0  0  0  0  0
   22.1068   20.2024   21.2702 H   0  0  0  0  0  0  0  0  0  0  0  0
   20.5394   20.9507   21.4757 H   0  0  0  0  0  0  0  0  0  0  0  0
   20.4709   18.8226   20.9801 C   0  0  0  0  0  0  0  0  0  0  0  0
   20.9394   18.7162   19.9914 H   0  0  0  0  0  0  0  0  0  0  0  0
   20.7018   17.8930   21.5174 H   0  0  0  0  0  0  0  0  0  0  0  0
   18.9461   18.9745   20.7665 C   0  0  0  0  0  0  0  0  0  0  0  0
   18.4075   19.1571   21.7025 H   0  0  0  0  0  0  0  0  0  0  0  0
   18.7325   19.8164   20.0950 H   0  0  0  0  0  0  0  0  0  0  0  0
   18.5280   18.0703   20.3053 H   0  0  0  0  0  0  0  0  0  0  0  0
  1  2  1  0  0  0  0
  1  3  1  0  0  0  0
  1  4  1  0  0  0  0
  1  5  1  0  0  0  0
  5  6  1  0  0  0  0
  5  7  1  0  0  0  0
  5  8  1  0  0  0  0
  8  9  1  0  0  0  0
  8 10  1  0  0  0  0
  8 11  1  0  0  0  0
 11 12  1  0  0  0  0
 11 13  1  0  0  0  0
 11 14  1  0  0  0  0
 14 15  1  0  0  0  0
 14 16  1  0  0  0  0
 14 17  1  0  0  0  0
 17 18  1  0  0  0  0
 17 19  1  0  0  0  0
 17 20  1  0  0  0  0
M  END
> <VConfSearch Rank>
31

> <Conf_Id>
77

> <Delta U+W>
5.366

> <U+W>
-6.412

> <U>
51.542

> <W>
-57.954

> <W(PB)>
-59.811

> <W(SA)>
1.857

> <Valence>
5.347

> <Coulomb>
45.870

> <VdW>
0.325

> <VdW6>
-6.161

> <VdW12>
6.486

> <Bond>
0.201

> <Angle>
1.484

> <Pdih>
3.662

> <Idih>
0.000

> <Tether>
0.000

$$$$
VeraChem MOL file


 20 19  0  0  0  0  0  0  0  0999 V2000     
   21.9488   18.4908   23.2030 N   0  3  0  0  0  0  0  0  0  0  0  0
   22.3679   17.6591   22.7751 H   0  0  0  0  0  0  0  0  0  0  0  0
   21.8698   19.2033   22.4709 H   0  0  0  0  0  0  0  0  0  0  0  0
   22.6185   18.8384   23.8975 H   0  0  0  0  0  0  0  0  0  0  0  0
   20.6000   18.1846   23.8246 C   0  0  0  0  0  0  0  0  0  0  0  0
   20.2300   19.0855   24.3212 H   0  0  0  0  0  0  0  0  0  0  0  0
   20.7664   17.4203   24.5885 H   0  0  0  0  0  0  0  0  0  0  0  0
   19.5489   17.6712   22.8195 C   0  0  0  0  0  0  0  0  0  0  0  0
   20.0125   16.9512   22.1321 H   0  0  0  0  0  0  0  0  0  0  0  0
   18.7973   17.1033   23.3838 H   0  0  0  0  0  0  0  0  0  0  0  0
   18.8057   18.7739   22.0186 C   0  0  0  0  0  0  0  0  0  0  0  0
   18.2325   19.4129   22.7045 H   0  0  0  0  0  0  0  0  0  0  0  0
   18.0566   18.2738   21.3891 H   0  0  0  0  0  0  0  0  0  0  0  0
   19.6986   19.6465   21.0999 C   0  0  0  0  0  0  0  0  0  0  0  0
   20.5720   19.0753   20.7577 H   0  0  0  0  0  0  0  0  0  0  0  0
   19.1313   19.8912   20.1907 H   0  0  0  0  0  0  0  0  0  0  0  0
   20.1312   20.9776   21.7594 C   0  0  0  0  0  0  0  0  0  0  0  0
   20.8052   21.5364   21.0971 H   0  0  0  0  0  0  0  0  0  0  0  0
   19.2577   21.6136   21.9540 H   0  0  0  0  0  0  0  0  0  0  0  0
   20.6448   20.8250   22.7146 H   0  0  0  0  0  0  0  0  0  0  0  0
  1  2  1  0  0  0  0
  1  3  1  0  0  0  0
  1  4  1  0  0  0  0
  1  5  1  0  0  0  0
  5  6  1  0  0  0  0
  5  7  1  0  0  0  0
  5  8  1  0  0  0  0
  8  9  1  0  0  0  0
  8 10  1  0  0  0  0
  8 11  1  0  0  0  0
 11 12  1  0  0  0  0
 11 13  1  0  0  0  0
 11 14  1  0  0  0  0
 14 15  1  0  0  0  0
 14 16  1  0  0  0  0
 14 17  1  0  0  0  0
 17 18  1  0  0  0  0
 17 19  1  0  0  0  0
 17 20  1  0  0  0  0
M  END
> <VConfSearch Rank>
32

> <Conf_Id>
67

> <Delta U+W>
5.353

> <U+W>
-6.425

> <U>
51.541

> <W>
-57.966

> <W(PB)>
-59.821

> <W(SA)>
1.855

> <Valence>
5.347

> <Coulomb>
45.870

> <VdW>
0.325

> <VdW6>
-6.161

> <VdW12>
6.486

> <Bond>
0.201

> <Angle>
1.485

> <Pdih>
3.662

> <Idih>
0.000

> <Tether>
0.000

$$$$
VeraChem MOL file


 20 19  0  0  0  0  0  0  0  0999 V2000     
   20.9474   21.2667   20.2001 N   0  3  0  0  0  0  0  0  0  0  0  0
   21.3434   20.6116   19.5186 H   0  0  0  0  0  0  0  0  0  0  0  0
   20.4805   22.0063   19.6648 H   0  0  0  0  0  0  0  0  0  0  0  0
   21.7343   21.7053   20.6888 H   0  0  0  0  0  0  0  0  0  0  0  0
   19.9963   20.5800   21.1596 C   0  0  0  0  0  0  0  0  0  0  0  0
   19.1708   20.1634   20.5762 H   0  0  0  0  0  0  0  0  0  0  0  0
   19.5911   21.3391   21.8342 H   0  0  0  0  0  0  0  0  0  0  0  0
   20.6663   19.4629   21.9797 C   0  0  0  0  0  0  0  0  0  0  0  0
   21.0857   18.7111   21.2978 H   0  0  0  0  0  0  0  0  0  0  0  0
   21.5046   19.8827   22.5516 H   0  0  0  0  0  0  0  0  0  0  0  0
   19.6642   18.7897   22.9436 C   0  0  0  0  0  0  0  0  0  0  0  0
   18.8242   18.3755   22.3686 H   0  0  0  0  0  0  0  0  0  0  0  0
   19.2426   19.5457   23.6209 H   0  0  0  0  0  0  0  0  0  0  0  0
   20.3259   17.6661   23.7725 C   0  0  0  0  0  0  0  0  0  0  0  0
   20.7472   16.9066   23.0988 H   0  0  0  0  0  0  0  0  0  0  0  0
   21.1655   18.0766   24.3510 H   0  0  0  0  0  0  0  0  0  0  0  0
   19.3210   16.9963   24.7340 C   0  0  0  0  0  0  0  0  0  0  0  0
   18.4860   16.5457   24.1817 H   0  0  0  0  0  0  0  0  0  0  0  0
   19.8091   16.2018   25.3132 H   0  0  0  0  0  0  0  0  0  0  0  0
   18.9077   17.7248   25.4437 H   0  0  0  0  0  0  0  0  0  0  0  0
  1  2  1  0  0  0  0
  1  3  1  0  0  0  0
  1  4  1  0  0  0  0
  1  5  1  0  0  0  0
  5  6  1  0  0  0  0
  5  7  1  0  0  0  0
  5  8  1  0  0  0  0
  8  9  1  0  0  0  0
  8 10  1  0  0  0  0
  8 11  1  0  0  0  0
 11 12  1  0  0  0  0
 11 13  1  0  0  0  0
 11 14  1  0  0  0  0
 14 15  1  0  0  0  0
 14 16  1  0  0  0  0
 14 17  1  0  0  0  0
 17 18  1  0  0  0  0
 17 19  1  0  0  0  0
 17 20  1  0  0  0  0
M  END
> <VConfSearch Rank>
33

> <Conf_Id>
72

> <Delta U+W>
0.000

> <U+W>
-11.778

> <U>
45.772

> <W>
-57.550

> <W(PB)>
-59.511

> <W(SA)>
1.961

> <Valence>
1.299

> <Coulomb>
44.177

> <VdW>
0.297

> <VdW6>
-3.490

> <VdW12>
3.786

> <Bond>
0.096

> <Angle>
0.381

> <Pdih>
0.822

> <Idih>
0.000

> <Tether>
0.000

$$$$
VeraChem MOL file


 20 19  0  0  0  0  0  0  0  0999 V2000     
   19.9997   21.9238   21.2649 N   0  3  0  0  0  0  0  0  0  0  0  0
   19.2254   21.6498   20.6520 H   0  0  0  0  0  0  0  0  0  0  0  0
   19.5904   22.4131   22.0670 H   0  0  0  0  0  0  0  0  0  0  0  0
   20.5572   22.6130   20.7494 H   0  0  0  0  0  0  0  0  0  0  0  0
   20.8327   20.7324   21.6929 C   0  0  0  0  0  0  0  0  0  0  0  0
   21.6530   21.1004   22.3152 H   0  0  0  0  0  0  0  0  0  0  0  0
   21.2603   20.2792   20.7944 H   0  0  0  0  0  0  0  0  0  0  0  0
   20.0255   19.6776   22.4708 C   0  0  0  0  0  0  0  0  0  0  0  0
   19.5849   20.1408   23.3636 H   0  0  0  0  0  0  0  0  0  0  0  0
   19.1953   19.3287   21.8438 H   0  0  0  0  0  0  0  0  0  0  0  0
   20.9146   18.4827   22.8890 C   0  0  0  0  0  0  0  0  0  0  0  0
   21.7806   18.8605   23.4504 H   0  0  0  0  0  0  0  0  0  0  0  0
   21.3186   17.9906   21.9933 H   0  0  0  0  0  0  0  0  0  0  0  0
   20.1771   17.4402   23.7641 C   0  0  0  0  0  0  0  0  0  0  0  0
   20.9024   16.6865   24.1013 H   0  0  0  0  0  0  0  0  0  0  0  0
   19.7919   17.9234   24.6730 H   0  0  0  0  0  0  0  0  0  0  0  0
   19.0222   16.7249   23.0264 C   0  0  0  0  0  0  0  0  0  0  0  0
   19.3758   16.2569   22.0986 H   0  0  0  0  0  0  0  0  0  0  0  0
   18.5938   15.9357   23.6577 H   0  0  0  0  0  0  0  0  0  0  0  0
   18.2122   17.4204   22.7742 H   0  0  0  0  0  0  0  0  0  0  0  0
  1  2  1  0  0  0  0
  1  3  1  0  0  0  0
  1  4  1  0  0  0  0
  1  5  1  0  0  0  0
  5  6  1  0  0  0  0
  5  7  1  0  0  0  0
  5  8  1  0  0  0  0
  8  9  1  0  0  0  0
  8 10  1  0  0  0  0
  8 11  1  0  0  0  0
 11 12  1  0  0  0  0
 11 13  1  0  0  0  0
 11 14  1  0  0  0  0
 14 15  1  0  0  0  0
 14 16  1  0  0  0  0
 14 17  1  0  0  0  0
 17 18  1  0  0  0  0
 17 19  1  0  0  0  0
 17 20  1  0  0  0  0
M  END
> <VConfSearch Rank>
34

> <Conf_Id>
42

> <Delta U+W>
0.508

> <U+W>
-11.270

> <U>
46.486

> <W>
-57.756

> <W(PB)>
-59.705

> <W(SA)>
1.949

> <Valence>
1.806

> <Coulomb>
44.248

> <VdW>
0.433

> <VdW6>
-4.089

> <VdW12>
4.522

> <Bond>
0.131

> <Angle>
0.628

> <Pdih>
1.047

> <Idih>
0.000

> <Tether>
0.000

$$$$
VeraChem MOL file


 20 19  0  0  0  0  0  0  0  0999 V2000     
   22.3543   17.9347   20.7674 N   0  3  0  0  0  0  0  0  0  0  0  0
   23.0703   18.6336   20.9893 H   0  0  0  0  0  0  0  0  0  0  0  0
   22.4895   17.1497   21.4122 H   0  0  0  0  0  0  0  0  0  0  0  0
   22.5620   17.5851   19.8260 H   0  0  0  0  0  0  0  0  0  0  0  0
   20.9548   18.5087   20.8587 C   0  0  0  0  0  0  0  0  0  0  0  0
   20.2483   17.7215   20.5817 H   0  0  0  0  0  0  0  0  0  0  0  0
   20.8730   19.3165   20.1264 H   0  0  0  0  0  0  0  0  0  0  0  0
   20.6103   19.0436   22.2603 C   0  0  0  0  0  0  0  0  0  0  0  0
   20.7129   18.2296   22.9890 H   0  0  0  0  0  0  0  0  0  0  0  0
   21.3316   19.8226   22.5410 H   0  0  0  0  0  0  0  0  0  0  0  0
   19.1758   19.6210   22.3067 C   0  0  0  0  0  0  0  0  0  0  0  0
   18.4505   18.8298   22.0709 H   0  0  0  0  0  0  0  0  0  0  0  0
   19.0703   20.3806   21.5196 H   0  0  0  0  0  0  0  0  0  0  0  0
   18.8134   20.2670   23.6661 C   0  0  0  0  0  0  0  0  0  0  0  0
   19.5224   21.0751   23.8947 H   0  0  0  0  0  0  0  0  0  0  0  0
   17.8256   20.7410   23.5791 H   0  0  0  0  0  0  0  0  0  0  0  0
   18.7801   19.2582   24.8369 C   0  0  0  0  0  0  0  0  0  0  0  0
   19.7755   18.8452   25.0423 H   0  0  0  0  0  0  0  0  0  0  0  0
   18.4307   19.7472   25.7554 H   0  0  0  0  0  0  0  0  0  0  0  0
   18.0992   18.4246   24.6211 H   0  0  0  0  0  0  0  0  0  0  0  0
  1  2  1  0  0  0  0
  1  3  1  0  0  0  0
  1  4  1  0  0  0  0
  1  5  1  0  0  0  0
  5  6  1  0  0  0  0
  5  7  1  0  0  0  0
  5  8  1  0  0  0  0
  8  9  1  0  0  0  0
  8 10  1  0  0  0  0
  8 11  1  0  0  0  0
 11 12  1  0  0  0  0
 11 13  1  0  0  0  0
 11 14  1  0  0  0  0
 14 15  1  0  0  0  0
 14 16  1  0  0  0  0
 14 17  1  0  0  0  0
 17 18  1  0  0  0  0
 17 19  1  0  0  0  0
 17 20  1  0  0  0  0
M  END
> <VConfSearch Rank>
35

> <Conf_Id>
41

> <Delta U+W>
0.515

> <U+W>
-11.263

> <U>
46.486

> <W>
-57.749

> <W(PB)>
-59.685

> <W(SA)>
1.936

> <Valence>
1.806

> <Coulomb>
44.248

> <VdW>
0.433

> <VdW6>
-4.089

> <VdW12>
4.522

> <Bond>
0.131

> <Angle>
0.628

> <Pdih>
1.047

> <Idih>
0.000

> <Tether>
0.000

$$$$
VeraChem MOL file


 20 19  0  0  0  0  0  0  0  0999 V2000     
   19.9051   20.9983   24.4865 N   0  3  0  0  0  0  0  0  0  0  0  0
   20.0711   21.3145   25.4477 H   0  0  0  0  0  0  0  0  0  0  0  0
   20.6569   21.3881   23.9105 H   0  0  0  0  0  0  0  0  0  0  0  0
   19.0301   21.4328   24.1771 H   0  0  0  0  0  0  0  0  0  0  0  0
   19.8483   19.4856   24.3937 C   0  0  0  0  0  0  0  0  0  0  0  0
   19.0560   19.1429   25.0649 H   0  0  0  0  0  0  0  0  0  0  0  0
   20.7986   19.0865   24.7586 H   0  0  0  0  0  0  0  0  0  0  0  0
   19.5753   18.9566   22.9719 C   0  0  0  0  0  0  0  0  0  0  0  0
   19.4368   17.8702   23.0359 H   0  0  0  0  0  0  0  0  0  0  0  0
   18.6291   19.3728   22.6015 H   0  0  0  0  0  0  0  0  0  0  0  0
   20.7226   19.2809   21.9821 C   0  0  0  0  0  0  0  0  0  0  0  0
   21.6614   18.8421   22.3476 H   0  0  0  0  0  0  0  0  0  0  0  0
   20.8813   20.3669   21.9497 H   0  0  0  0  0  0  0  0  0  0  0  0
   20.4497   18.7894   20.5396 C   0  0  0  0  0  0  0  0  0  0  0  0
   19.5185   19.2364   20.1643 H   0  0  0  0  0  0  0  0  0  0  0  0
   21.2520   19.1572   19.8847 H   0  0  0  0  0  0  0  0  0  0  0  0
   20.3745   17.2503   20.4162 C   0  0  0  0  0  0  0  0  0  0  0  0
   19.5095   16.8434   20.9543 H   0  0  0  0  0  0  0  0  0  0  0  0
   20.2761   16.9539   19.3639 H   0  0  0  0  0  0  0  0  0  0  0  0
   21.2816   16.7771   20.8141 H   0  0  0  0  0  0  0  0  0  0  0  0
  1  2  1  0  0  0  0
  1  3  1  0  0  0  0
  1  4  1  0  0  0  0
  1  5  1  0  0  0  0
  5  6  1  0  0  0  0
  5  7  1  0  0  0  0
  5  8  1  0  0  0  0
  8  9  1  0  0  0  0
  8 10  1  0  0  0  0
  8 11  1  0  0  0  0
 11 12  1  0  0  0  0
 11 13  1  0  0  0  0
 11 14  1  0  0  0  0
 14 15  1  0  0  0  0
 14 16  1  0  0  0  0
 14 17  1  0  0  0  0
 17 18  1  0  0  0  0
 17 19  1  0  0  0  0
 17 20  1  0  0  0  0
M  END
> <VConfSearch Rank>
36

> <Conf_Id>
33

> <Delta U+W>
0.703

> <U+W>
-11.075

> <U>
47.080

> <W>
-58.154

> <W(PB)>
-60.053

> <W(SA)>
1.899

> <Valence>
1.943

> <Coulomb>
44.572

> <VdW>
0.565

> <VdW6>
-4.575

> <VdW12>
5.139

> <Bond>
0.158

> <Angle>
0.700

> <Pdih>
1.085

> <Idih>
0.000

> <Tether>
0.000

$$$$
VeraChem MOL file


 20 19  0  0  0  0  0  0  0  0999 V2000     
   22.3230   19.7608   24.0496 N   0  3  0  0  0  0  0  0  0  0  0  0
   22.7322   20.1351   24.9121 H   0  0  0  0  0  0  0  0  0  0  0  0
   22.9713   19.0498   23.6967 H   0  0  0  0  0  0  0  0  0  0  0  0
   22.3124   20.5255   23.3684 H   0  0  0  0  0  0  0  0  0  0  0  0
   20.9361   19.1938   24.2847 C   0  0  0  0  0  0  0  0  0  0  0  0
   20.3044   19.9937   24.6805 H   0  0  0  0  0  0  0  0  0  0  0  0
   21.0218   18.4182   25.0506 H   0  0  0  0  0  0  0  0  0  0  0  0
   20.2842   18.5941   23.0233 C   0  0  0  0  0  0  0  0  0  0  0  0
   20.9292   17.8031   22.6183 H   0  0  0  0  0  0  0  0  0  0  0  0
   19.3463   18.1111   23.3242 H   0  0  0  0  0  0  0  0  0  0  0  0
   19.9992   19.6581   21.9334 C   0  0  0  0  0  0  0  0  0  0  0  0
   20.9354   20.1635   21.6622 H   0  0  0  0  0  0  0  0  0  0  0  0
   19.3352   20.4341   22.3389 H   0  0  0  0  0  0  0  0  0  0  0  0
   19.3776   19.0684   20.6439 C   0  0  0  0  0  0  0  0  0  0  0  0
   19.3147   19.8638   19.8879 H   0  0  0  0  0  0  0  0  0  0  0  0
   20.0446   18.3010   20.2267 H   0  0  0  0  0  0  0  0  0  0  0  0
   17.9671   18.4722   20.8558 C   0  0  0  0  0  0  0  0  0  0  0  0
   17.2886   19.2110   21.3018 H   0  0  0  0  0  0  0  0  0  0  0  0
   17.5356   18.1571   19.8970 H   0  0  0  0  0  0  0  0  0  0  0  0
   17.9945   17.5914   21.5090 H   0  0  0  0  0  0  0  0  0  0  0  0
  1  2  1  0  0  0  0
  1  3  1  0  0  0  0
  1  4  1  0  0  0  0
  1  5  1  0  0  0  0
  5  6  1  0  0  0  0
  5  7  1  0  0  0  0
  5  8  1  0  0  0  0
  8  9  1  0  0  0  0
  8 10  1  0  0  0  0
  8 11  1  0  0  0  0
 11 12  1  0  0  0  0
 11 13  1  0  0  0  0
 11 14  1  0  0  0  0
 14 15  1  0  0  0  0
 14 16  1  0  0  0  0
 14 17  1  0  0  0  0
 17 18  1  0  0  0  0
 17 19  1  0  0  0  0
 17 20  1  0  0  0  0
M  END
> <VConfSearch Rank>
37

> <Conf_Id>
24

> <Delta U+W>
0.847

> <U+W>
-10.931

> <U>
47.080

> <W>
-58.011

> <W(PB)>
-59.914

> <W(SA)>
1.903

> <Valence>
1.943

> <Coulomb>
44.572

> <VdW>
0.565

> <VdW6>
-4.575

> <VdW12>
5.140

> <Bond>
0.158

> <Angle>
0.700

> <Pdih>
1.085

> <Idih>
0.000

> <Tether>
0.000

$$$$
VeraChem MOL file


 20 19  0  0  0  0  0  0  0  0999 V2000     
   21.6356   17.5544   20.8945 N   0  3  0  0  0  0  0  0  0  0  0  0
   21.6133   17.4940   19.8711 H   0  0  0  0  0  0  0  0  0  0  0  0
   22.4963   18.0514   21.1443 H   0  0  0  0  0  0  0  0  0  0  0  0
   21.7281   16.5963   21.2464 H   0  0  0  0  0  0  0  0  0  0  0  0
   20.4033   18.2433   21.4451 C   0  0  0  0  0  0  0  0  0  0  0  0
   19.5259   17.6791   21.1176 H   0  0  0  0  0  0  0  0  0  0  0  0
   20.3531   19.2430   21.0059 H   0  0  0  0  0  0  0  0  0  0  0  0
   20.4059   18.3510   22.9817 C   0  0  0  0  0  0  0  0  0  0  0  0
   20.4985   17.3450   23.4119 H   0  0  0  0  0  0  0  0  0  0  0  0
   21.2911   18.9093   23.3120 H   0  0  0  0  0  0  0  0  0  0  0  0
   19.1220   19.0158   23.5381 C   0  0  0  0  0  0  0  0  0  0  0  0
   19.1847   19.0494   24.6345 H   0  0  0  0  0  0  0  0  0  0  0  0
   18.2594   18.3763   23.3045 H   0  0  0  0  0  0  0  0  0  0  0  0
   18.8437   20.4437   23.0023 C   0  0  0  0  0  0  0  0  0  0  0  0
   18.6726   20.4155   21.9176 H   0  0  0  0  0  0  0  0  0  0  0  0
   17.9061   20.8075   23.4456 H   0  0  0  0  0  0  0  0  0  0  0  0
   19.9705   21.4514   23.3247 C   0  0  0  0  0  0  0  0  0  0  0  0
   19.6842   22.4626   23.0078 H   0  0  0  0  0  0  0  0  0  0  0  0
   20.1754   21.4831   24.4027 H   0  0  0  0  0  0  0  0  0  0  0  0
   20.9017   21.1943   22.8047 H   0  0  0  0  0  0  0  0  0  0  0  0
  1  2  1  0  0  0  0
  1  3  1  0  0  0  0
  1  4  1  0  0  0  0
  1  5  1  0  0  0  0
  5  6  1  0  0  0  0
  5  7  1  0  0  0  0
  5  8  1  0  0  0  0
  8  9  1  0  0  0  0
  8 10  1  0  0  0  0
  8 11  1  0  0  0  0
 11 12  1  0  0  0  0
 11 13  1  0  0  0  0
 11 14  1  0  0  0  0
 14 15  1  0  0  0  0
 14 16  1  0  0  0  0
 14 17  1  0  0  0  0
 17 18  1  0  0  0  0
 17 19  1  0  0  0  0
 17 20  1  0  0  0  0
M  END
> <VConfSearch Rank>
38

> <Conf_Id>
64

> <Delta U+W>
0.707

> <U+W>
-11.070

> <U>
47.077

> <W>
-58.148

> <W(PB)>
-60.054

> <W(SA)>
1.906

> <Valence>
2.039

> <Coulomb>
44.655

> <VdW>
0.383

> <VdW6>
-4.912

> <VdW12>
5.295

> <Bond>
0.159

> <Angle>
0.856

> <Pdih>
1.024

> <Idih>
0.000

> <Tether>
0.000

$$$$
VeraChem MOL file


 20 19  0  0  0  0  0  0  0  0999 V2000     
   18.6735   20.4488   20.6782 N   0  3  0  0  0  0  0  0  0  0  0  0
   17.8874   20.9606   21.0911 H   0  0  0  0  0  0  0  0  0  0  0  0
   19.4260   21.1268   20.5228 H   0  0  0  0  0  0  0  0  0  0  0  0
   18.3665   20.1280   19.7539 H   0  0  0  0  0  0  0  0  0  0  0  0
   19.1213   19.2963   21.5543 C   0  0  0  0  0  0  0  0  0  0  0  0
   19.9368   18.7808   21.0402 H   0  0  0  0  0  0  0  0  0  0  0  0
   18.2831   18.6013   21.6532 H   0  0  0  0  0  0  0  0  0  0  0  0
   19.5899   19.7446   22.9514 C   0  0  0  0  0  0  0  0  0  0  0  0
   20.4254   20.4495   22.8530 H   0  0  0  0  0  0  0  0  0  0  0  0
   18.7777   20.2970   23.4424 H   0  0  0  0  0  0  0  0  0  0  0  0
   20.0030   18.5561   23.8552 C   0  0  0  0  0  0  0  0  0  0  0  0
   19.1208   17.9289   24.0447 H   0  0  0  0  0  0  0  0  0  0  0  0
   20.3132   18.9447   24.8350 H   0  0  0  0  0  0  0  0  0  0  0  0
   21.1346   17.6650   23.2820 C   0  0  0  0  0  0  0  0  0  0  0  0
   21.3314   16.8493   23.9916 H   0  0  0  0  0  0  0  0  0  0  0  0
   20.8034   17.1819   22.3526 H   0  0  0  0  0  0  0  0  0  0  0  0
   22.4520   18.4324   23.0279 C   0  0  0  0  0  0  0  0  0  0  0  0
   22.7939   18.9422   23.9379 H   0  0  0  0  0  0  0  0  0  0  0  0
   23.2446   17.7415   22.7125 H   0  0  0  0  0  0  0  0  0  0  0  0
   22.3348   19.1828   22.2363 H   0  0  0  0  0  0  0  0  0  0  0  0
  1  2  1  0  0  0  0
  1  3  1  0  0  0  0
  1  4  1  0  0  0  0
  1  5  1  0  0  0  0
  5  6  1  0  0  0  0
  5  7  1  0  0  0  0
  5  8  1  0  0  0  0
  8  9  1  0  0  0  0
  8 10  1  0  0  0  0
  8 11  1  0  0  0  0
 11 12  1  0  0  0  0
 11 13  1  0  0  0  0
 11 14  1  0  0  0  0
 14 15  1  0  0  0  0
 14 16  1  0  0  0  0
 14 17  1  0  0  0  0
 17 18  1  0  0  0  0
 17 19  1  0  0  0  0
 17 20  1  0  0  0  0
M  END
> <VConfSearch Rank>
39

> <Conf_Id>
22

> <Delta U+W>
0.731

> <U+W>
-11.047

> <U>
47.078

> <W>
-58.125

> <W(PB)>
-60.031

> <W(SA)>
1.906

> <Valence>
2.039

> <Coulomb>
44.655

> <VdW>
0.383

> <VdW6>
-4.913

> <VdW12>
5.296

> <Bond>
0.159

> <Angle>
0.856

> <Pdih>
1.024

> <Idih>
0.000

> <Tether>
0.000

$$$$
VeraChem MOL file


 20 19  0  0  0  0  0  0  0  0999 V2000     
   19.3641   19.9302   19.9717 N   0  3  0  0  0  0  0  0  0  0  0  0
   18.4782   20.4093   20.1616 H   0  0  0  0  0  0  0  0  0  0  0  0
   19.9888   20.6148   19.5342 H   0  0  0  0  0  0  0  0  0  0  0  0
   19.1687   19.2126   19.2658 H   0  0  0  0  0  0  0  0  0  0  0  0
   19.9669   19.3352   21.2284 C   0  0  0  0  0  0  0  0  0  0  0  0
   20.8896   18.8192   20.9495 H   0  0  0  0  0  0  0  0  0  0  0  0
   19.2607   18.5986   21.6182 H   0  0  0  0  0  0  0  0  0  0  0  0
   20.2671   20.3871   22.3110 C   0  0  0  0  0  0  0  0  0  0  0  0
   20.8805   21.1835   21.8690 H   0  0  0  0  0  0  0  0  0  0  0  0
   19.3291   20.8599   22.6312 H   0  0  0  0  0  0  0  0  0  0  0  0
   21.0130   19.8220   23.5464 C   0  0  0  0  0  0  0  0  0  0  0  0
   21.2528   20.6698   24.2030 H   0  0  0  0  0  0  0  0  0  0  0  0
   21.9806   19.3984   23.2437 H   0  0  0  0  0  0  0  0  0  0  0  0
   20.2110   18.7858   24.3760 C   0  0  0  0  0  0  0  0  0  0  0  0
   20.5562   18.8371   25.4182 H   0  0  0  0  0  0  0  0  0  0  0  0
   19.1461   19.0565   24.3976 H   0  0  0  0  0  0  0  0  0  0  0  0
   20.3838   17.3266   23.8926 C   0  0  0  0  0  0  0  0  0  0  0  0
   19.9770   17.1703   22.8881 H   0  0  0  0  0  0  0  0  0  0  0  0
   21.4431   17.0389   23.8798 H   0  0  0  0  0  0  0  0  0  0  0  0
   19.8612   16.6366   24.5677 H   0  0  0  0  0  0  0  0  0  0  0  0
  1  2  1  0  0  0  0
  1  3  1  0  0  0  0
  1  4  1  0  0  0  0
  1  5  1  0  0  0  0
  5  6  1  0  0  0  0
  5  7  1  0  0  0  0
  5  8  1  0  0  0  0
  8  9  1  0  0  0  0
  8 10  1  0  0  0  0
  8 11  1  0  0  0  0
 11 12  1  0  0  0  0
 11 13  1  0  0  0  0
 11 14  1  0  0  0  0
 14 15  1  0  0  0  0
 14 16  1  0  0  0  0
 14 17  1  0  0  0  0
 17 18  1  0  0  0  0
 17 19  1  0  0  0  0
 17 20  1  0  0  0  0
M  END
> <VConfSearch Rank>
40

> <Conf_Id>
61

> <Delta U+W>
2.669

> <U+W>
-9.108

> <U>
48.916

> <W>
-58.025

> <W(PB)>
-59.935

> <W(SA)>
1.911

> <Valence>
3.785

> <Coulomb>
44.716

> <VdW>
0.415

> <VdW6>
-4.836

> <VdW12>
5.251

> <Bond>
0.175

> <Angle>
1.195

> <Pdih>
2.415

> <Idih>
0.000

> <Tether>
0.000

$$$$
VeraChem MOL file


 20 19  0  0  0  0  0  0  0  0999 V2000     
   20.0772   19.5177   20.1795 N   0  3  0  0  0  0  0  0  0  0  0  0
   19.4763   19.7962   19.3966 H   0  0  0  0  0  0  0  0  0  0  0  0
   21.0000   19.3091   19.7854 H   0  0  0  0  0  0  0  0  0  0  0  0
   19.7016   18.6407   20.5495 H   0  0  0  0  0  0  0  0  0  0  0  0
   20.1505   20.5968   21.2429 C   0  0  0  0  0  0  0  0  0  0  0  0
   19.1360   20.8188   21.5849 H   0  0  0  0  0  0  0  0  0  0  0  0
   20.5477   21.4933   20.7592 H   0  0  0  0  0  0  0  0  0  0  0  0
   21.0442   20.2414   22.4497 C   0  0  0  0  0  0  0  0  0  0  0  0
   21.9697   19.7615   22.1045 H   0  0  0  0  0  0  0  0  0  0  0  0
   21.3526   21.1821   22.9249 H   0  0  0  0  0  0  0  0  0  0  0  0
   20.3532   19.3690   23.5291 C   0  0  0  0  0  0  0  0  0  0  0  0
   19.4617   19.8899   23.9052 H   0  0  0  0  0  0  0  0  0  0  0  0
   21.0371   19.2782   24.3843 H   0  0  0  0  0  0  0  0  0  0  0  0
   19.9593   17.9512   23.0523 C   0  0  0  0  0  0  0  0  0  0  0  0
   19.1633   18.0151   22.2999 H   0  0  0  0  0  0  0  0  0  0  0  0
   20.8218   17.4637   22.5766 H   0  0  0  0  0  0  0  0  0  0  0  0
   19.4604   17.0764   24.2223 C   0  0  0  0  0  0  0  0  0  0  0  0
   19.1760   16.0777   23.8660 H   0  0  0  0  0  0  0  0  0  0  0  0
   20.2410   16.9515   24.9840 H   0  0  0  0  0  0  0  0  0  0  0  0
   18.5816   17.5248   24.7039 H   0  0  0  0  0  0  0  0  0  0  0  0
  1  2  1  0  0  0  0
  1  3  1  0  0  0  0
  1  4  1  0  0  0  0
  1  5  1  0  0  0  0
  5  6  1  0  0  0  0
  5  7  1  0  0  0  0
  5  8  1  0  0  0  0
  8  9  1  0  0  0  0
  8 10  1  0  0  0  0
  8 11  1  0  0  0  0
 11 12  1  0  0  0  0
 11 13  1  0  0  0  0
 11 14  1  0  0  0  0
 14 15  1  0  0  0  0
 14 16  1  0  0  0  0
 14 17  1  0  0  0  0
 17 18  1  0  0  0  0
 17 19  1  0  0  0  0
 17 20  1  0  0  0  0
M  END
> <VConfSearch Rank>
41

> <Conf_Id>
69

> <Delta U+W>
2.811

> <U+W>
-8.967

> <U>
49.216

> <W>
-58.183

> <W(PB)>
-60.064

> <W(SA)>
1.881

> <Valence>
2.929

> <Coulomb>
46.006

> <VdW>
0.281

> <VdW6>
-4.909

> <VdW12>
5.190

> <Bond>
0.156

> <Angle>
0.974

> <Pdih>
1.799

> <Idih>
0.000

> <Tether>
0.000

$$$$
VeraChem MOL file


 20 19  0  0  0  0  0  0  0  0999 V2000     
   21.1835   17.1576   22.3426 N   0  3  0  0  0  0  0  0  0  0  0  0
   20.4206   17.3727   21.6954 H   0  0  0  0  0  0  0  0  0  0  0  0
   22.0613   17.2958   21.8321 H   0  0  0  0  0  0  0  0  0  0  0  0
   21.1210   16.1574   22.5601 H   0  0  0  0  0  0  0  0  0  0  0  0
   21.1214   18.0099   23.5957 C   0  0  0  0  0  0  0  0  0  0  0  0
   21.9592   17.7056   24.2290 H   0  0  0  0  0  0  0  0  0  0  0  0
   20.1946   17.7799   24.1283 H   0  0  0  0  0  0  0  0  0  0  0  0
   21.2145   19.5285   23.3377 C   0  0  0  0  0  0  0  0  0  0  0  0
   21.5656   20.0032   24.2636 H   0  0  0  0  0  0  0  0  0  0  0  0
   21.9847   19.7357   22.5830 H   0  0  0  0  0  0  0  0  0  0  0  0
   19.8740   20.1984   22.9401 C   0  0  0  0  0  0  0  0  0  0  0  0
   20.0345   21.2846   22.8968 H   0  0  0  0  0  0  0  0  0  0  0  0
   19.1317   20.0309   23.7328 H   0  0  0  0  0  0  0  0  0  0  0  0
   19.2973   19.7247   21.5853 C   0  0  0  0  0  0  0  0  0  0  0  0
   20.0706   19.7887   20.8069 H   0  0  0  0  0  0  0  0  0  0  0  0
   18.9889   18.6740   21.6546 H   0  0  0  0  0  0  0  0  0  0  0  0
   18.0760   20.5683   21.1613 C   0  0  0  0  0  0  0  0  0  0  0  0
   18.3477   21.6251   21.0405 H   0  0  0  0  0  0  0  0  0  0  0  0
   17.6732   20.2136   20.2037 H   0  0  0  0  0  0  0  0  0  0  0  0
   17.2739   20.5049   21.9082 H   0  0  0  0  0  0  0  0  0  0  0  0
  1  2  1  0  0  0  0
  1  3  1  0  0  0  0
  1  4  1  0  0  0  0
  1  5  1  0  0  0  0
  5  6  1  0  0  0  0
  5  7  1  0  0  0  0
  5  8  1  0  0  0  0
  8  9  1  0  0  0  0
  8 10  1  0  0  0  0
  8 11  1  0  0  0  0
 11 12  1  0  0  0  0
 11 13  1  0  0  0  0
 11 14  1  0  0  0  0
 14 15  1  0  0  0  0
 14 16  1  0  0  0  0
 14 17  1  0  0  0  0
 17 18  1  0  0  0  0
 17 19  1  0  0  0  0
 17 20  1  0  0  0  0
M  END
> <VConfSearch Rank>
42

> <Conf_Id>
26

> <Delta U+W>
2.809

> <U+W>
-8.969

> <U>
49.216

> <W>
-58.185

> <W(PB)>
-60.088

> <W(SA)>
1.903

> <Valence>
2.929

> <Coulomb>
46.006

> <VdW>
0.281

> <VdW6>
-4.909

> <VdW12>
5.190

> <Bond>
0.156

> <Angle>
0.974

> <Pdih>
1.799

> <Idih>
0.000

> <Tether>
0.000

$$$$
VeraChem MOL file


 20 19  0  0  0  0  0  0  0  0999 V2000     
   21.2083   21.3300   22.2545 N   0  3  0  0  0  0  0  0  0  0  0  0
   20.2017   21.4850   22.1465 H   0  0  0  0  0  0  0  0  0  0  0  0
   21.4953   21.7961   23.1208 H   0  0  0  0  0  0  0  0  0  0  0  0
   21.6726   21.8211   21.4834 H   0  0  0  0  0  0  0  0  0  0  0  0
   21.5500   19.8528   22.2693 C   0  0  0  0  0  0  0  0  0  0  0  0
   22.6363   19.7632   22.3553 H   0  0  0  0  0  0  0  0  0  0  0  0
   21.2495   19.4247   21.3094 H   0  0  0  0  0  0  0  0  0  0  0  0
   20.8797   19.0732   23.4187 C   0  0  0  0  0  0  0  0  0  0  0  0
   21.2396   18.0366   23.4002 H   0  0  0  0  0  0  0  0  0  0  0  0
   21.2145   19.4892   24.3781 H   0  0  0  0  0  0  0  0  0  0  0  0
   19.3291   19.0870   23.3697 C   0  0  0  0  0  0  0  0  0  0  0  0
   18.9687   20.1083   23.5526 H   0  0  0  0  0  0  0  0  0  0  0  0
   18.9437   18.4829   24.2027 H   0  0  0  0  0  0  0  0  0  0  0  0
   18.7157   18.5680   22.0441 C   0  0  0  0  0  0  0  0  0  0  0  0
   17.6213   18.6424   22.1113 H   0  0  0  0  0  0  0  0  0  0  0  0
   19.0111   19.2168   21.2085 H   0  0  0  0  0  0  0  0  0  0  0  0
   19.0961   17.1045   21.7243 C   0  0  0  0  0  0  0  0  0  0  0  0
   18.8260   16.4364   22.5523 H   0  0  0  0  0  0  0  0  0  0  0  0
   18.5678   16.7571   20.8269 H   0  0  0  0  0  0  0  0  0  0  0  0
   20.1717   17.0001   21.5349 H   0  0  0  0  0  0  0  0  0  0  0  0
  1  2  1  0  0  0  0
  1  3  1  0  0  0  0
  1  4  1  0  0  0  0
  1  5  1  0  0  0  0
  5  6  1  0  0  0  0
  5  7  1  0  0  0  0
  5  8  1  0  0  0  0
  8  9  1  0  0  0  0
  8 10  1  0  0  0  0
  8 11  1  0  0  0  0
 11 12  1  0  0  0  0
 11 13  1  0  0  0  0
 11 14  1  0  0  0  0
 14 15  1  0  0  0  0
 14 16  1  0  0  0  0
 14 17  1  0  0  0  0
 17 18  1  0  0  0  0
 17 19  1  0  0  0  0
 17 20  1  0  0  0  0
M  END
> <VConfSearch Rank>
43

> <Conf_Id>
2

> <Delta U+W>
0.994

> <U+W>
-10.784

> <U>
47.562

> <W>
-58.346

> <W(PB)>
-60.221

> <W(SA)>
1.875

> <Valence>
2.149

> <Coulomb>
45.034

> <VdW>
0.378

> <VdW6>
-5.599

> <VdW12>
5.977

> <Bond>
0.185

> <Angle>
0.935

> <Pdih>
1.028

> <Idih>
0.000

> <Tether>
0.000

$$$$
VeraChem MOL file


 20 19  0  0  0  0  0  0  0  0999 V2000     
   21.6332   17.1795   22.7789 N   0  3  0  0  0  0  0  0  0  0  0  0
   22.6151   17.2926   22.5084 H   0  0  0  0  0  0  0  0  0  0  0  0
   21.5180   17.6257   23.6936 H   0  0  0  0  0  0  0  0  0  0  0  0
   21.4740   16.1754   22.9120 H   0  0  0  0  0  0  0  0  0  0  0  0
   20.6924   17.7675   21.7454 C   0  0  0  0  0  0  0  0  0  0  0  0
   19.6668   17.5852   22.0765 H   0  0  0  0  0  0  0  0  0  0  0  0
   20.8473   17.2264   20.8080 H   0  0  0  0  0  0  0  0  0  0  0  0
   20.9006   19.2766   21.5054 C   0  0  0  0  0  0  0  0  0  0  0  0
   21.9226   19.4448   21.1409 H   0  0  0  0  0  0  0  0  0  0  0  0
   20.2364   19.6007   20.6940 H   0  0  0  0  0  0  0  0  0  0  0  0
   20.6555   20.1544   22.7609 C   0  0  0  0  0  0  0  0  0  0  0  0
   20.7938   21.2095   22.4871 H   0  0  0  0  0  0  0  0  0  0  0  0
   21.4280   19.9392   23.5113 H   0  0  0  0  0  0  0  0  0  0  0  0
   19.2600   19.9812   23.4132 C   0  0  0  0  0  0  0  0  0  0  0  0
   19.1374   18.9541   23.7824 H   0  0  0  0  0  0  0  0  0  0  0  0
   19.2043   20.6289   24.2994 H   0  0  0  0  0  0  0  0  0  0  0  0
   18.0919   20.3344   22.4646 C   0  0  0  0  0  0  0  0  0  0  0  0
   18.0364   19.6391   21.6178 H   0  0  0  0  0  0  0  0  0  0  0  0
   17.1340   20.2818   22.9981 H   0  0  0  0  0  0  0  0  0  0  0  0
   18.1995   21.3522   22.0678 H   0  0  0  0  0  0  0  0  0  0  0  0
  1  2  1  0  0  0  0
  1  3  1  0  0  0  0
  1  4  1  0  0  0  0
  1  5  1  0  0  0  0
  5  6  1  0  0  0  0
  5  7  1  0  0  0  0
  5  8  1  0  0  0  0
  8  9  1  0  0  0  0
  8 10  1  0  0  0  0
  8 11  1  0  0  0  0
 11 12  1  0  0  0  0
 11 13  1  0  0  0  0
 11 14  1  0  0  0  0
 14 15  1  0  0  0  0
 14 16  1  0  0  0  0
 14 17  1  0  0  0  0
 17 18  1  0  0  0  0
 17 19  1  0  0  0  0
 17 20  1  0  0  0  0
M  END
> <VConfSearch Rank>
44

> <Conf_Id>
1

> <Delta U+W>
1.032

> <U+W>
-10.746

> <U>
47.562

> <W>
-58.308

> <W(PB)>
-60.184

> <W(SA)>
1.877

> <Valence>
2.149

> <Coulomb>
45.035

> <VdW>
0.378

> <VdW6>
-5.599

> <VdW12>
5.978

> <Bond>
0.185

> <Angle>
0.935

> <Pdih>
1.028

> <Idih>
0.000

> <Tether>
0.000

$$$$
VeraChem MOL file


 20 19  0  0  0  0  0  0  0  0999 V2000     
   19.2486   21.1489   21.8962 N   0  3  0  0  0  0  0  0  0  0  0  0
   19.6819   21.7126   21.1582 H   0  0  0  0  0  0  0  0  0  0  0  0
   18.7281   20.3964   21.4364 H   0  0  0  0  0  0  0  0  0  0  0  0
   18.5595   21.7478   22.3629 H   0  0  0  0  0  0  0  0  0  0  0  0
   20.2771   20.6088   22.8711 C   0  0  0  0  0  0  0  0  0  0  0  0
   19.7470   20.0481   23.6426 H   0  0  0  0  0  0  0  0  0  0  0  0
   20.7580   21.4663   23.3496 H   0  0  0  0  0  0  0  0  0  0  0  0
   21.3578   19.7256   22.2118 C   0  0  0  0  0  0  0  0  0  0  0  0
   21.8590   20.3219   21.4378 H   0  0  0  0  0  0  0  0  0  0  0  0
   22.1315   19.4839   22.9525 H   0  0  0  0  0  0  0  0  0  0  0  0
   20.8244   18.4164   21.5701 C   0  0  0  0  0  0  0  0  0  0  0  0
   21.5453   18.0995   20.8037 H   0  0  0  0  0  0  0  0  0  0  0  0
   19.8875   18.6036   21.0298 H   0  0  0  0  0  0  0  0  0  0  0  0
   20.6418   17.2307   22.5522 C   0  0  0  0  0  0  0  0  0  0  0  0
   20.3527   16.3437   21.9711 H   0  0  0  0  0  0  0  0  0  0  0  0
   21.6055   16.9849   23.0198 H   0  0  0  0  0  0  0  0  0  0  0  0
   19.5819   17.4634   23.6515 C   0  0  0  0  0  0  0  0  0  0  0  0
   18.6364   17.8221   23.2249 H   0  0  0  0  0  0  0  0  0  0  0  0
   19.3745   16.5273   24.1860 H   0  0  0  0  0  0  0  0  0  0  0  0
   19.9308   18.1890   24.3957 H   0  0  0  0  0  0  0  0  0  0  0  0
  1  2  1  0  0  0  0
  1  3  1  0  0  0  0
  1  4  1  0  0  0  0
  1  5  1  0  0  0  0
  5  6  1  0  0  0  0
  5  7  1  0  0  0  0
  5  8  1  0  0  0  0
  8  9  1  0  0  0  0
  8 10  1  0  0  0  0
  8 11  1  0  0  0  0
 11 12  1  0  0  0  0
 11 13  1  0  0  0  0
 11 14  1  0  0  0  0
 14 15  1  0  0  0  0
 14 16  1  0  0  0  0
 14 17  1  0  0  0  0
 17 18  1  0  0  0  0
 17 19  1  0  0  0  0
 17 20  1  0  0  0  0
M  END
> <VConfSearch Rank>
45

> <Conf_Id>
80

> <Delta U+W>
2.920

> <U+W>
-8.857

> <U>
49.434

> <W>
-58.292

> <W(PB)>
-60.170

> <W(SA)>
1.879

> <Valence>
3.798

> <Coulomb>
45.253

> <VdW>
0.384

> <VdW6>
-5.595

> <VdW12>
5.979

> <Bond>
0.198

> <Angle>
1.368

> <Pdih>
2.231

> <Idih>
0.000

> <Tether>
0.000

$$$$
VeraChem MOL file


 20 19  0  0  0  0  0  0  0  0999 V2000     
   18.5863   18.7160   20.8675 N   0  3  0  0  0  0  0  0  0  0  0  0
   17.6097   18.9643   21.0534 H   0  0  0  0  0  0  0  0  0  0  0  0
   18.6505   18.4847   19.8706 H   0  0  0  0  0  0  0  0  0  0  0  0
   18.7844   17.8562   21.3872 H   0  0  0  0  0  0  0  0  0  0  0  0
   19.5357   19.8358   21.2478 C   0  0  0  0  0  0  0  0  0  0  0  0
   19.2902   20.7001   20.6247 H   0  0  0  0  0  0  0  0  0  0  0  0
   20.5486   19.5177   20.9960 H   0  0  0  0  0  0  0  0  0  0  0  0
   19.4545   20.2444   22.7341 C   0  0  0  0  0  0  0  0  0  0  0  0
   20.0696   21.1387   22.8994 H   0  0  0  0  0  0  0  0  0  0  0  0
   18.4209   20.5472   22.9479 H   0  0  0  0  0  0  0  0  0  0  0  0
   19.8699   19.1342   23.7368 C   0  0  0  0  0  0  0  0  0  0  0  0
   19.4631   18.1623   23.4291 H   0  0  0  0  0  0  0  0  0  0  0  0
   19.3945   19.3577   24.7019 H   0  0  0  0  0  0  0  0  0  0  0  0
   21.3951   19.0142   23.9889 C   0  0  0  0  0  0  0  0  0  0  0  0
   21.7806   19.9627   24.3883 H   0  0  0  0  0  0  0  0  0  0  0  0
   21.5558   18.2662   24.7780 H   0  0  0  0  0  0  0  0  0  0  0  0
   22.2216   18.6050   22.7498 C   0  0  0  0  0  0  0  0  0  0  0  0
   22.2798   19.4218   22.0208 H   0  0  0  0  0  0  0  0  0  0  0  0
   23.2508   18.3589   23.0417 H   0  0  0  0  0  0  0  0  0  0  0  0
   21.7930   17.7224   22.2578 H   0  0  0  0  0  0  0  0  0  0  0  0
  1  2  1  0  0  0  0
  1  3  1  0  0  0  0
  1  4  1  0  0  0  0
  1  5  1  0  0  0  0
  5  6  1  0  0  0  0
  5  7  1  0  0  0  0
  5  8  1  0  0  0  0
  8  9  1  0  0  0  0
  8 10  1  0  0  0  0
  8 11  1  0  0  0  0
 11 12  1  0  0  0  0
 11 13  1  0  0  0  0
 11 14  1  0  0  0  0
 14 15  1  0  0  0  0
 14 16  1  0  0  0  0
 14 17  1  0  0  0  0
 17 18  1  0  0  0  0
 17 19  1  0  0  0  0
 17 20  1  0  0  0  0
M  END
> <VConfSearch Rank>
46

> <Conf_Id>
65

> <Delta U+W>
2.949

> <U+W>
-8.829

> <U>
49.435

> <W>
-58.263

> <W(PB)>
-60.125

> <W(SA)>
1.862

> <Valence>
3.797

> <Coulomb>
45.253

> <VdW>
0.384

> <VdW6>
-5.596

> <VdW12>
5.980

> <Bond>
0.198

> <Angle>
1.369

> <Pdih>
2.230

> <Idih>
0.000

> <Tether>
0.000

$$$$
VeraChem MOL file


 20 19  0  0  0  0  0  0  0  0999 V2000     
   18.1480   19.0433   22.4776 N   0  3  0  0  0  0  0  0  0  0  0  0
   17.3326   19.6156   22.7212 H   0  0  0  0  0  0  0  0  0  0  0  0
   18.6387   19.5191   21.7144 H   0  0  0  0  0  0  0  0  0  0  0  0
   17.7902   18.1580   22.1052 H   0  0  0  0  0  0  0  0  0  0  0  0
   19.0594   18.8246   23.6697 C   0  0  0  0  0  0  0  0  0  0  0  0
   18.4680   18.3142   24.4346 H   0  0  0  0  0  0  0  0  0  0  0  0
   19.3583   19.7986   24.0660 H   0  0  0  0  0  0  0  0  0  0  0  0
   20.3112   17.9806   23.3548 C   0  0  0  0  0  0  0  0  0  0  0  0
   20.6606   17.5379   24.2971 H   0  0  0  0  0  0  0  0  0  0  0  0
   20.0367   17.1341   22.7115 H   0  0  0  0  0  0  0  0  0  0  0  0
   21.4975   18.7641   22.7315 C   0  0  0  0  0  0  0  0  0  0  0  0
   22.3310   18.0579   22.6127 H   0  0  0  0  0  0  0  0  0  0  0  0
   21.8566   19.5248   23.4386 H   0  0  0  0  0  0  0  0  0  0  0  0
   21.2169   19.4113   21.3514 C   0  0  0  0  0  0  0  0  0  0  0  0
   22.1325   19.3550   20.7458 H   0  0  0  0  0  0  0  0  0  0  0  0
   20.4634   18.8318   20.8012 H   0  0  0  0  0  0  0  0  0  0  0  0
   20.8068   20.8999   21.4503 C   0  0  0  0  0  0  0  0  0  0  0  0
   19.9379   21.0534   22.0991 H   0  0  0  0  0  0  0  0  0  0  0  0
   21.6307   21.5009   21.8569 H   0  0  0  0  0  0  0  0  0  0  0  0
   20.5644   21.3012   20.4576 H   0  0  0  0  0  0  0  0  0  0  0  0
  1  2  1  0  0  0  0
  1  3  1  0  0  0  0
  1  4  1  0  0  0  0
  1  5  1  0  0  0  0
  5  6  1  0  0  0  0
  5  7  1  0  0  0  0
  5  8  1  0  0  0  0
  8  9  1  0  0  0  0
  8 10  1  0  0  0  0
  8 11  1  0  0  0  0
 11 12  1  0  0  0  0
 11 13  1  0  0  0  0
 11 14  1  0  0  0  0
 14 15  1  0  0  0  0
 14 16  1  0  0  0  0
 14 17  1  0  0  0  0
 17 18  1  0  0  0  0
 17 19  1  0  0  0  0
 17 20  1  0  0  0  0
M  END
> <VConfSearch Rank>
47

> <Conf_Id>
77

> <Delta U+W>
5.366

> <U+W>
-6.412

> <U>
51.542

> <W>
-57.954

> <W(PB)>
-59.811

> <W(SA)>
1.857

> <Valence>
5.347

> <Coulomb>
45.870

> <VdW>
0.325

> <VdW6>
-6.161

> <VdW12>
6.486

> <Bond>
0.201

> <Angle>
1.484

> <Pdih>
3.662

> <Idih>
0.000

> <Tether>
0.000

$$$$
VeraChem MOL file


 20 19  0  0  0  0  0  0  0  0999 V2000     
   20.8363   18.3416   20.7177 N   0  3  0  0  0  0  0  0  0  0  0  0
   21.7987   17.9893   20.7120 H   0  0  0  0  0  0  0  0  0  0  0  0
   20.3025   17.7601   21.3709 H   0  0  0  0  0  0  0  0  0  0  0  0
   20.4537   18.1791   19.7802 H   0  0  0  0  0  0  0  0  0  0  0  0
   20.7758   19.8065   21.1050 C   0  0  0  0  0  0  0  0  0  0  0  0
   19.7393   20.1463   21.0315 H   0  0  0  0  0  0  0  0  0  0  0  0
   21.3662   20.3566   20.3672 H   0  0  0  0  0  0  0  0  0  0  0  0
   21.3264   20.1052   22.5143 C   0  0  0  0  0  0  0  0  0  0  0  0
   22.2466   19.5305   22.6835 H   0  0  0  0  0  0  0  0  0  0  0  0
   21.6259   21.1614   22.5384 H   0  0  0  0  0  0  0  0  0  0  0  0
   20.3266   19.8702   23.6784 C   0  0  0  0  0  0  0  0  0  0  0  0
   19.4671   20.5471   23.5763 H   0  0  0  0  0  0  0  0  0  0  0  0
   20.8286   20.1723   24.6081 H   0  0  0  0  0  0  0  0  0  0  0  0
   19.8361   18.4100   23.8509 C   0  0  0  0  0  0  0  0  0  0  0  0
   20.6015   17.7036   23.5023 H   0  0  0  0  0  0  0  0  0  0  0  0
   19.7137   18.2065   24.9242 H   0  0  0  0  0  0  0  0  0  0  0  0
   18.4779   18.1397   23.1609 C   0  0  0  0  0  0  0  0  0  0  0  0
   18.1967   17.0832   23.2607 H   0  0  0  0  0  0  0  0  0  0  0  0
   17.6833   18.7380   23.6255 H   0  0  0  0  0  0  0  0  0  0  0  0
   18.4929   18.3866   22.0940 H   0  0  0  0  0  0  0  0  0  0  0  0
  1  2  1  0  0  0  0
  1  3  1  0  0  0  0
  1  4  1  0  0  0  0
  1  5  1  0  0  0  0
  5  6  1  0  0  0  0
  5  7  1  0  0  0  0
  5  8  1  0  0  0  0
  8  9  1  0  0  0  0
  8 10  1  0  0  0  0
  8 11  1  0  0  0  0
 11 12  1  0  0  0  0
 11 13  1  0  0  0  0
 11 14  1  0  0  0  0
 14 15  1  0  0  0  0
 14 16  1  0  0  0  0
 14 17  1  0  0  0  0
 17 18  1  0  0  0  0
 17 19  1  0  0  0  0
 17 20  1  0  0  0  0
M  END
> <VConfSearch Rank>
48

> <Conf_Id>
67

> <Delta U+W>
5.353

> <U+W>
-6.425

> <U>
51.541

> <W>
-57.966

> <W(PB)>
-59.821

> <W(SA)>
1.855

> <Valence>
5.347

> <Coulomb>
45.870

> <VdW>
0.325

> <VdW6>
-6.161

> <VdW12>
6.486

> <Bond>
0.201

> <Angle>
1.485

> <Pdih>
3.662

> <Idih>
0.000

> <Tether>
0.000

$$$$
VeraChem MOL file


 20 19  0  0  0  0  0  0  0  0999 V2000     
   18.7382   21.5216   24.0816 N   0  3  0  0  0  0  0  0  0  0  0  0
   17.8209   21.4791   23.6265 H   0  0  0  0  0  0  0  0  0  0  0  0
   18.5722   21.7737   25.0617 H   0  0  0  0  0  0  0  0  0  0  0  0
   19.2494   22.3017   23.6568 H   0  0  0  0  0  0  0  0  0  0  0  0
   19.4938   20.2140   23.9568 C   0  0  0  0  0  0  0  0  0  0  0  0
   18.9081   19.4368   24.4551 H   0  0  0  0  0  0  0  0  0  0  0  0
   20.4438   20.3211   24.4875 H   0  0  0  0  0  0  0  0  0  0  0  0
   19.7596   19.8059   22.4966 C   0  0  0  0  0  0  0  0  0  0  0  0
   18.8039   19.7151   21.9633 H   0  0  0  0  0  0  0  0  0  0  0  0
   20.3343   20.5964   21.9956 H   0  0  0  0  0  0  0  0  0  0  0  0
   20.5308   18.4698   22.4138 C   0  0  0  0  0  0  0  0  0  0  0  0
   19.9555   17.6824   22.9205 H   0  0  0  0  0  0  0  0  0  0  0  0
   21.4841   18.5627   22.9527 H   0  0  0  0  0  0  0  0  0  0  0  0
   20.8033   18.0500   20.9519 C   0  0  0  0  0  0  0  0  0  0  0  0
   19.8521   17.9539   20.4097 H   0  0  0  0  0  0  0  0  0  0  0  0
   21.3806   18.8340   20.4419 H   0  0  0  0  0  0  0  0  0  0  0  0
   21.5738   16.7146   20.8741 C   0  0  0  0  0  0  0  0  0  0  0  0
   21.0056   15.9025   21.3461 H   0  0  0  0  0  0  0  0  0  0  0  0
   21.7577   16.4334   19.8290 H   0  0  0  0  0  0  0  0  0  0  0  0
   22.5461   16.7895   21.3784 H   0  0  0  0  0  0  0  0  0  0  0  0
  1  2  1  0  0  0  0
  1  3  1  0  0  0  0
  1  4  1  0  0  0  0
  1  5  1  0  0  0  0
  5  6  1  0  0  0  0
  5  7  1  0  0  0  0
  5  8  1  0  0  0  0
  8  9  1  0  0  0  0
  8 10  1  0  0  0  0
  8 11  1  0  0  0  0
 11 12  1  0  0  0  0
 11 13  1  0  0  0  0
 11 14  1  0  0  0  0
 14 15  1  0  0  0  0
 14 16  1  0  0  0  0
 14 17  1  0  0  0  0
 17 18  1  0  0  0  0
 17 19  1  0  0  0  0
 17 20  1  0  0  0  0
M  END
> <VConfSearch Rank>
49

> <Conf_Id>
72

> <Delta U+W>
0.000

> <U+W>
-11.778

> <U>
45.772

> <W>
-57.550

> <W(PB)>
-59.511

> <W(SA)>
1.961

> <Valence>
1.299

> <Coulomb>
44.177

> <VdW>
0.297

> <VdW6>
-3.490

> <VdW12>
3.786

> <Bond>
0.096

> <Angle>
0.381

> <Pdih>
0.822

> <Idih>
0.000

> <Tether>
0.000

$$$$
VeraChem MOL file


 20 19  0  0  0  0  0  0  0  0999 V2000     
   19.2191   21.8023   23.6514 N   0  3  0  0  0  0  0  0  0  0  0  0
   19.8420   22.3192   23.0228 H   0  0  0  0  0  0  0  0  0  0  0  0
   18.2826   21.8283   23.2359 H   0  0  0  0  0  0  0  0  0  0  0  0
   19.1709   22.3350   24.5263 H   0  0  0  0  0  0  0  0  0  0  0  0
   19.6974   20.3829   23.8820 C   0  0  0  0  0  0  0  0  0  0  0  0
   19.0070   19.9038   24.5815 H   0  0  0  0  0  0  0  0  0  0  0  0
   20.6835   20.4311   24.3519 H   0  0  0  0  0  0  0  0  0  0  0  0
   19.7807   19.5544   22.5875 C   0  0  0  0  0  0  0  0  0  0  0  0
   18.7920   19.5220   22.1108 H   0  0  0  0  0  0  0  0  0  0  0  0
   20.4619   20.0534   21.8867 H   0  0  0  0  0  0  0  0  0  0  0  0
   20.2701   18.1143   22.8701 C   0  0  0  0  0  0  0  0  0  0  0  0
   19.6205   17.6585   23.6304 H   0  0  0  0  0  0  0  0  0  0  0  0
   21.2790   18.1448   23.3047 H   0  0  0  0  0  0  0  0  0  0  0  0
   20.2737   17.2057   21.6167 C   0  0  0  0  0  0  0  0  0  0  0  0
   20.5311   16.1823   21.9237 H   0  0  0  0  0  0  0  0  0  0  0  0
   19.2612   17.1532   21.1925 H   0  0  0  0  0  0  0  0  0  0  0  0
   21.2703   17.6644   20.5276 C   0  0  0  0  0  0  0  0  0  0  0  0
   22.2864   17.7521   20.9336 H   0  0  0  0  0  0  0  0  0  0  0  0
   21.2999   16.9391   19.7042 H   0  0  0  0  0  0  0  0  0  0  0  0
   20.9848   18.6342   20.1018 H   0  0  0  0  0  0  0  0  0  0  0  0
  1  2  1  0  0  0  0
  1  3  1  0  0  0  0
  1  4  1  0  0  0  0
  1  5  1  0  0  0  0
  5  6  1  0  0  0  0
  5  7  1  0  0  0  0
  5  8  1  0  0  0  0
  8  9  1  0  0  0  0
  8 10  1  0  0  0  0
  8 11  1  0  0  0  0
 11 12  1  0  0  0  0
 11 13  1  0  0  0  0
 11 14  1  0  0  0  0
 14 15  1  0  0  0  0
 14 16  1  0  0  0  0
 14 17  1  0  0  0  0
 17 18  1  0  0  0  0
 17 19  1  0  0  0  0
 17 20  1  0  0  0  0
M  END
> <VConfSearch Rank>
50

> <Conf_Id>
42

> <Delta U+W>
0.508

> <U+W>
-11.270

> <U>
46.486

> <W>
-57.756

> <W(PB)>
-59.705

> <W(SA)>
1.949

> <Valence>
1.806

> <Coulomb>
44.248

> <VdW>
0.433

> <VdW6>
-4.089

> <VdW12>
4.522

> <Bond>
0.131

> <Angle>
0.628

> <Pdih>
1.047

> <Idih>
0.000

> <Tether>
0.000

$$$$
VeraChem MOL file


 20 19  0  0  0  0  0  0  0  0999 V2000     
   21.9259   18.4798   20.1231 N   0  3  0  0  0  0  0  0  0  0  0  0
   21.5883   19.2311   19.5133 H   0  0  0  0  0  0  0  0  0  0  0  0
   22.7466   18.8405   20.6196 H   0  0  0  0  0  0  0  0  0  0  0  0
   22.2562   17.7262   19.5110 H   0  0  0  0  0  0  0  0  0  0  0  0
   20.8516   17.9994   21.0780 C   0  0  0  0  0  0  0  0  0  0  0  0
   21.2695   17.1828   21.6730 H   0  0  0  0  0  0  0  0  0  0  0  0
   20.0246   17.6023   20.4832 H   0  0  0  0  0  0  0  0  0  0  0  0
   20.3326   19.1074   22.0119 C   0  0  0  0  0  0  0  0  0  0  0  0
   21.1733   19.5105   22.5905 H   0  0  0  0  0  0  0  0  0  0  0  0
   19.9284   19.9321   21.4101 H   0  0  0  0  0  0  0  0  0  0  0  0
   19.2380   18.5738   22.9660 C   0  0  0  0  0  0  0  0  0  0  0  0
   19.6551   17.7795   23.6006 H   0  0  0  0  0  0  0  0  0  0  0  0
   18.4413   18.1062   22.3706 H   0  0  0  0  0  0  0  0  0  0  0  0
   18.6070   19.6709   23.8576 C   0  0  0  0  0  0  0  0  0  0  0  0
   18.1672   20.4558   23.2263 H   0  0  0  0  0  0  0  0  0  0  0  0
   17.7742   19.2298   24.4233 H   0  0  0  0  0  0  0  0  0  0  0  0
   19.6056   20.3035   24.8535 C   0  0  0  0  0  0  0  0  0  0  0  0
   20.3945   20.8617   24.3344 H   0  0  0  0  0  0  0  0  0  0  0  0
   19.0897   21.0062   25.5206 H   0  0  0  0  0  0  0  0  0  0  0  0
   20.0807   19.5359   25.4782 H   0  0  0  0  0  0  0  0  0  0  0  0
  1  2  1  0  0  0  0
  1  3  1  0  0  0  0
  1  4  1  0  0  0  0
  1  5  1  0  0  0  0
  5  6  1  0  0  0  0
  5  7  1  0  0  0  0
  5  8  1  0  0  0  0
  8  9  1  0  0  0  0
  8 10  1  0  0  0  0
  8 11  1  0  0  0  0
 11 12  1  0  0  0  0
 11 13  1  0  0  0  0
 11 14  1  0  0  0  0
 14 15  1  0  0  0  0
 14 16  1  0  0  0  0
 14 17  1  0  0  0  0
 17 18  1  0  0  0  0
 17 19  1  0  0  0  0
 17 20  1  0  0  0  0
M  END
> <VConfSearch Rank>
51

> <Conf_Id>
41

> <Delta U+W>
0.515

> <U+W>
-11.263

> <U>
46.486

> <W>
-57.749

> <W(PB)>
-59.685

> <W(SA)>
1.936

> <Valence>
1.806

> <Coulomb>
44.248

> <VdW>
0.433

> <VdW6>
-4.089

> <VdW12>
4.522

> <Bond>
0.131

> <Angle>
0.628

> <Pdih>
1.047

> <Idih>
0.000

> <Tether>
0.000

$$$$
VeraChem MOL file


 20 19  0  0  0  0  0  0  0  0999 V2000     
   19.1788   21.3092   21.0651 N   0  3  0  0  0  0  0  0  0  0  0  0
   18.8904   22.2919   21.0128 H   0  0  0  0  0  0  0  0  0  0  0  0
   20.1579   21.2697   20.7674 H   0  0  0  0  0  0  0  0  0  0  0  0
   18.6289   20.8000   20.3662 H   0  0  0  0  0  0  0  0  0  0  0  0
   18.9881   20.7403   22.4580 C   0  0  0  0  0  0  0  0  0  0  0  0
   17.9332   20.8571   22.7210 H   0  0  0  0  0  0  0  0  0  0  0  0
   19.5802   21.3401   23.1544 H   0  0  0  0  0  0  0  0  0  0  0  0
   19.3833   19.2559   22.5861 C   0  0  0  0  0  0  0  0  0  0  0  0
   19.0981   18.9152   23.5892 H   0  0  0  0  0  0  0  0  0  0  0  0
   18.7996   18.6585   21.8734 H   0  0  0  0  0  0  0  0  0  0  0  0
   20.8983   19.0186   22.3635 C   0  0  0  0  0  0  0  0  0  0  0  0
   21.4753   19.6017   23.0946 H   0  0  0  0  0  0  0  0  0  0  0  0
   21.1855   19.3947   21.3727 H   0  0  0  0  0  0  0  0  0  0  0  0
   21.3084   17.5283   22.4519 C   0  0  0  0  0  0  0  0  0  0  0  0
   20.7438   16.9428   21.7128 H   0  0  0  0  0  0  0  0  0  0  0  0
   22.3671   17.4373   22.1711 H   0  0  0  0  0  0  0  0  0  0  0  0
   21.1136   16.9174   23.8585 C   0  0  0  0  0  0  0  0  0  0  0  0
   20.0533   16.8702   24.1354 H   0  0  0  0  0  0  0  0  0  0  0  0
   21.5074   15.8932   23.8900 H   0  0  0  0  0  0  0  0  0  0  0  0
   21.6431   17.5034   24.6208 H   0  0  0  0  0  0  0  0  0  0  0  0
  1  2  1  0  0  0  0
  1  3  1  0  0  0  0
  1  4  1  0  0  0  0
  1  5  1  0  0  0  0
  5  6  1  0  0  0  0
  5  7  1  0  0  0  0
  5  8  1  0  0  0  0
  8  9  1  0  0  0  0
  8 10  1  0  0  0  0
  8 11  1  0  0  0  0
 11 12  1  0  0  0  0
 11 13  1  0  0  0  0
 11 14  1  0  0  0  0
 14 15  1  0  0  0  0
 14 16  1  0  0  0  0
 14 17  1  0  0  0  0
 17 18  1  0  0  0  0
 17 19  1  0  0  0  0
 17 20  1  0  0  0  0
M  END
> <VConfSearch Rank>
52

> <Conf_Id>
33

> <Delta U+W>
0.703

> <U+W>
-11.075

> <U>
47.080

> <W>
-58.154

> <W(PB)>
-60.053

> <W(SA)>
1.899

> <Valence>
1.943

> <Coulomb>
44.572

> <VdW>
0.565

> <VdW6>
-4.575

> <VdW12>
5.139

> <Bond>
0.158

> <Angle>
0.700

> <Pdih>
1.085

> <Idih>
0.000

> <Tether>
0.000

$$$$
VeraChem MOL file


 20 19  0  0  0  0  0  0  0  0999 V2000     
   20.2786   16.4607   23.1951 N   0  3  0  0  0  0  0  0  0  0  0  0
   20.4832   15.7206   23.8747 H   0  0  0  0  0  0  0  0  0  0  0  0
   19.5359   16.1069   22.5841 H   0  0  0  0  0  0  0  0  0  0  0  0
   21.1167   16.5752   22.6177 H   0  0  0  0  0  0  0  0  0  0  0  0
   19.8805   17.7558   23.8765 C   0  0  0  0  0  0  0  0  0  0  0  0
   20.7030   18.0644   24.5275 H   0  0  0  0  0  0  0  0  0  0  0  0
   19.0108   17.5448   24.5049 H   0  0  0  0  0  0  0  0  0  0  0  0
   19.5371   18.8966   22.8984 C   0  0  0  0  0  0  0  0  0  0  0  0
   18.7227   18.5774   22.2347 H   0  0  0  0  0  0  0  0  0  0  0  0
   19.1522   19.7404   23.4845 H   0  0  0  0  0  0  0  0  0  0  0  0
   20.7576   19.3543   22.0606 C   0  0  0  0  0  0  0  0  0  0  0  0
   21.1610   18.4979   21.5044 H   0  0  0  0  0  0  0  0  0  0  0  0
   21.5599   19.6933   22.7306 H   0  0  0  0  0  0  0  0  0  0  0  0
   20.4236   20.4751   21.0461 C   0  0  0  0  0  0  0  0  0  0  0  0
   21.3082   20.6583   20.4201 H   0  0  0  0  0  0  0  0  0  0  0  0
   19.6309   20.1358   20.3647 H   0  0  0  0  0  0  0  0  0  0  0  0
   20.0028   21.8049   21.7125 C   0  0  0  0  0  0  0  0  0  0  0  0
   20.7654   22.1497   22.4229 H   0  0  0  0  0  0  0  0  0  0  0  0
   19.8715   22.5889   20.9554 H   0  0  0  0  0  0  0  0  0  0  0  0
   19.0518   21.7046   22.2499 H   0  0  0  0  0  0  0  0  0  0  0  0
  1  2  1  0  0  0  0
  1  3  1  0  0  0  0
  1  4  1  0  0  0  0
  1  5  1  0  0  0  0
  5  6  1  0  0  0  0
  5  7  1  0  0  0  0
  5  8  1  0  0  0  0
  8  9  1  0  0  0  0
  8 10  1  0  0  0  0
  8 11  1  0  0  0  0
 11 12  1  0  0  0  0
 11 13  1  0  0  0  0
 11 14  1  0  0  0  0
 14 15  1  0  0  0  0
 14 16  1  0  0  0  0
 14 17  1  0  0  0  0
 17 18  1  0  0  0  0
 17 19  1  0  0  0  0
 17 20  1  0  0  0  0
M  END
> <VConfSearch Rank>
53

> <Conf_Id>
24

> <Delta U+W>
0.847

> <U+W>
-10.931

> <U>
47.080

> <W>
-58.011

> <W(PB)>
-59.914

> <W(SA)>
1.903

> <Valence>
1.943

> <Coulomb>
44.572

> <VdW>
0.565

> <VdW6>
-4.575

> <VdW12>
5.140

> <Bond>
0.158

> <Angle>
0.700

> <Pdih>
1.085

> <Idih>
0.000

> <Tether>
0.000

$$$$
VeraChem MOL file


 20 19  0  0  0  0  0  0  0  0999 V2000     
   21.9790   20.8628   21.3090 N   0  3  0  0  0  0  0  0  0  0  0  0
   22.5237   20.6765   20.4603 H   0  0  0  0  0  0  0  0  0  0  0  0
   21.2502   21.5362   21.0527 H   0  0  0  0  0  0  0  0  0  0  0  0
   22.6071   21.3346   21.9672 H   0  0  0  0  0  0  0  0  0  0  0  0
   21.3961   19.5924   21.8943 C   0  0  0  0  0  0  0  0  0  0  0  0
   22.2228   18.9120   22.1160 H   0  0  0  0  0  0  0  0  0  0  0  0
   20.7651   19.1297   21.1309 H   0  0  0  0  0  0  0  0  0  0  0  0
   20.5705   19.8376   23.1713 C   0  0  0  0  0  0  0  0  0  0  0  0
   21.2020   20.3399   23.9161 H   0  0  0  0  0  0  0  0  0  0  0  0
   19.7458   20.5277   22.9519 H   0  0  0  0  0  0  0  0  0  0  0  0
   20.0165   18.5287   23.7875 C   0  0  0  0  0  0  0  0  0  0  0  0
   19.4510   18.7746   24.6970 H   0  0  0  0  0  0  0  0  0  0  0  0
   20.8593   17.9045   24.1156 H   0  0  0  0  0  0  0  0  0  0  0  0
   19.1163   17.6937   22.8411 C   0  0  0  0  0  0  0  0  0  0  0  0
   19.6950   17.3480   21.9738 H   0  0  0  0  0  0  0  0  0  0  0  0
   18.7978   16.7855   23.3718 H   0  0  0  0  0  0  0  0  0  0  0  0
   17.8603   18.4543   22.3582 C   0  0  0  0  0  0  0  0  0  0  0  0
   17.2123   17.7919   21.7699 H   0  0  0  0  0  0  0  0  0  0  0  0
   17.2745   18.8288   23.2077 H   0  0  0  0  0  0  0  0  0  0  0  0
   18.1259   19.3067   21.7207 H   0  0  0  0  0  0  0  0  0  0  0  0
  1  2  1  0  0  0  0
  1  3  1  0  0  0  0
  1  4  1  0  0  0  0
  1  5  1  0  0  0  0
  5  6  1  0  0  0  0
  5  7  1  0  0  0  0
  5  8  1  0  0  0  0
  8  9  1  0  0  0  0
  8 10  1  0  0  0  0
  8 11  1  0  0  0  0
 11 12  1  0  0  0  0
 11 13  1  0  0  0  0
 11 14  1  0  0  0  0
 14 15  1  0  0  0  0
 14 16  1  0  0  0  0
 14 17  1  0  0  0  0
 17 18  1  0  0  0  0
 17 19  1  0  0  0  0
 17 20  1  0  0  0  0
M  END
> <VConfSearch Rank>
54

> <Conf_Id>
64

> <Delta U+W>
0.707

> <U+W>
-11.070

> <U>
47.077

> <W>
-58.148

> <W(PB)>
-60.054

> <W(SA)>
1.906

> <Valence>
2.039

> <Coulomb>
44.655

> <VdW>
0.383

> <VdW6>
-4.912

> <VdW12>
5.295

> <Bond>
0.159

> <Angle>
0.856

> <Pdih>
1.024

> <Idih>
0.000

> <Tether>
0.000

$$$$
VeraChem MOL file


 20 19  0  0  0  0  0  0  0  0999 V2000     
   19.8306   19.9072   25.0772 N   0  3  0  0  0  0  0  0  0  0  0  0
   19.3185   19.2455   25.6690 H   0  0  0  0  0  0  0  0  0  0  0  0
   20.8270   19.7894   25.2861 H   0  0  0  0  0  0  0  0  0  0  0  0
   19.5702   20.8484   25.3899 H   0  0  0  0  0  0  0  0  0  0  0  0
   19.5318   19.6996   23.6062 C   0  0  0  0  0  0  0  0  0  0  0  0
   20.0847   20.4547   23.0414 H   0  0  0  0  0  0  0  0  0  0  0  0
   18.4627   19.8685   23.4513 H   0  0  0  0  0  0  0  0  0  0  0  0
   19.9121   18.2941   23.1038 C   0  0  0  0  0  0  0  0  0  0  0  0
   20.9833   18.1200   23.2672 H   0  0  0  0  0  0  0  0  0  0  0  0
   19.3832   17.5426   23.7049 H   0  0  0  0  0  0  0  0  0  0  0  0
   19.5616   18.0760   21.6106 C   0  0  0  0  0  0  0  0  0  0  0  0
   18.4709   18.1301   21.4888 H   0  0  0  0  0  0  0  0  0  0  0  0
   19.8471   17.0546   21.3232 H   0  0  0  0  0  0  0  0  0  0  0  0
   20.2230   19.0812   20.6332 C   0  0  0  0  0  0  0  0  0  0  0  0
   19.8922   18.8458   19.6119 H   0  0  0  0  0  0  0  0  0  0  0  0
   19.8666   20.0999   20.8376 H   0  0  0  0  0  0  0  0  0  0  0  0
   21.7679   19.0529   20.6748 C   0  0  0  0  0  0  0  0  0  0  0  0
   22.1493   18.0397   20.4936 H   0  0  0  0  0  0  0  0  0  0  0  0
   22.1854   19.7116   19.9023 H   0  0  0  0  0  0  0  0  0  0  0  0
   22.1511   19.3969   21.6435 H   0  0  0  0  0  0  0  0  0  0  0  0
  1  2  1  0  0  0  0
  1  3  1  0  0  0  0
  1  4  1  0  0  0  0
  1  5  1  0  0  0  0
  5  6  1  0  0  0  0
  5  7  1  0  0  0  0
  5  8  1  0  0  0  0
  8  9  1  0  0  0  0
  8 10  1  0  0  0  0
  8 11  1  0  0  0  0
 11 12  1  0  0  0  0
 11 13  1  0  0  0  0
 11 14  1  0  0  0  0
 14 15  1  0  0  0  0
 14 16  1  0  0  0  0
 14 17  1  0  0  0  0
 17 18  1  0  0  0  0
 17 19  1  0  0  0  0
 17 20  1  0  0  0  0
M  END
> <VConfSearch Rank>
55

> <Conf_Id>
22

> <Delta U+W>
0.731

> <U+W>
-11.047

> <U>
47.078

> <W>
-58.125

> <W(PB)>
-60.031

> <W(SA)>
1.906

> <Valence>
2.039

> <Coulomb>
44.655

> <VdW>
0.383

> <VdW6>
-4.913

> <VdW12>
5.296

> <Bond>
0.159

> <Angle>
0.856

> <Pdih>
1.024

> <Idih>
0.000

> <Tether>
0.000

$$$$
VeraChem MOL file


 20 19  0  0  0  0  0  0  0  0999 V2000     
   22.2817   20.5969   21.4188 N   0  3  0  0  0  0  0  0  0  0  0  0
   22.8887   19.8398   21.0892 H   0  0  0  0  0  0  0  0  0  0  0  0
   22.0173   21.1500   20.5975 H   0  0  0  0  0  0  0  0  0  0  0  0
   22.8579   21.2031   22.0121 H   0  0  0  0  0  0  0  0  0  0  0  0
   21.0701   20.0693   22.1605 C   0  0  0  0  0  0  0  0  0  0  0  0
   20.4850   20.9261   22.5055 H   0  0  0  0  0  0  0  0  0  0  0  0
   21.4292   19.5193   23.0333 H   0  0  0  0  0  0  0  0  0  0  0  0
   20.1866   19.1505   21.2980 C   0  0  0  0  0  0  0  0  0  0  0  0
   19.9326   19.6764   20.3681 H   0  0  0  0  0  0  0  0  0  0  0  0
   20.7607   18.2617   21.0046 H   0  0  0  0  0  0  0  0  0  0  0  0
   18.8702   18.7144   21.9900 C   0  0  0  0  0  0  0  0  0  0  0  0
   18.2847   18.1443   21.2554 H   0  0  0  0  0  0  0  0  0  0  0  0
   18.2611   19.5954   22.2352 H   0  0  0  0  0  0  0  0  0  0  0  0
   19.0566   17.8257   23.2473 C   0  0  0  0  0  0  0  0  0  0  0  0
   18.1714   17.1820   23.3487 H   0  0  0  0  0  0  0  0  0  0  0  0
   19.9094   17.1461   23.1109 H   0  0  0  0  0  0  0  0  0  0  0  0
   19.2125   18.6249   24.5625 C   0  0  0  0  0  0  0  0  0  0  0  0
   20.1272   19.2266   24.5776 H   0  0  0  0  0  0  0  0  0  0  0  0
   18.3593   19.2980   24.7177 H   0  0  0  0  0  0  0  0  0  0  0  0
   19.2563   17.9421   25.4209 H   0  0  0  0  0  0  0  0  0  0  0  0
  1  2  1  0  0  0  0
  1  3  1  0  0  0  0
  1  4  1  0  0  0  0
  1  5  1  0  0  0  0
  5  6  1  0  0  0  0
  5  7  1  0  0  0  0
  5  8  1  0  0  0  0
  8  9  1  0  0  0  0
  8 10  1  0  0  0  0
  8 11  1  0  0  0  0
 11 12  1  0  0  0  0
 11 13  1  0  0  0  0
 11 14  1  0  0  0  0
 14 15  1  0  0  0  0
 14 16  1  0  0  0  0
 14 17  1  0  0  0  0
 17 18  1  0  0  0  0
 17 19  1  0  0  0  0
 17 20  1  0  0  0  0
M  END
> <VConfSearch Rank>
56

> <Conf_Id>
61

> <Delta U+W>
2.669

> <U+W>
-9.108

> <U>
48.916

> <W>
-58.025

> <W(PB)>
-59.935

> <W(SA)>
1.911

> <Valence>
3.785

> <Coulomb>
44.716

> <VdW>
0.415

> <VdW6>
-4.836

> <VdW12>
5.251

> <Bond>
0.175

> <Angle>
1.195

> <Pdih>
2.415

> <Idih>
0.000

> <Tether>
0.000

$$$$
VeraChem MOL file


 20 19  0  0  0  0  0  0  0  0999 V2000     
   21.2474   20.5258   23.7835 N   0  3  0  0  0  0  0  0  0  0  0  0
   21.7037   20.6476   24.6938 H   0  0  0  0  0  0  0  0  0  0  0  0
   21.2307   21.4470   23.3347 H   0  0  0  0  0  0  0  0  0  0  0  0
   20.2761   20.2616   23.9672 H   0  0  0  0  0  0  0  0  0  0  0  0
   21.9634   19.4969   22.9296 C   0  0  0  0  0  0  0  0  0  0  0  0
   22.0021   18.5530   23.4799 H   0  0  0  0  0  0  0  0  0  0  0  0
   22.9887   19.8524   22.7962 H   0  0  0  0  0  0  0  0  0  0  0  0
   21.3281   19.2686   21.5418 C   0  0  0  0  0  0  0  0  0  0  0  0
   21.0387   20.2301   21.0974 H   0  0  0  0  0  0  0  0  0  0  0  0
   22.1038   18.8547   20.8839 H   0  0  0  0  0  0  0  0  0  0  0  0
   20.1279   18.2872   21.5357 C   0  0  0  0  0  0  0  0  0  0  0  0
   20.4496   17.3129   21.9292 H   0  0  0  0  0  0  0  0  0  0  0  0
   19.8346   18.1127   20.4912 H   0  0  0  0  0  0  0  0  0  0  0  0
   18.8925   18.7798   22.3253 C   0  0  0  0  0  0  0  0  0  0  0  0
   19.1217   18.8166   23.3977 H   0  0  0  0  0  0  0  0  0  0  0  0
   18.6302   19.7998   22.0110 H   0  0  0  0  0  0  0  0  0  0  0  0
   17.6764   17.8527   22.1144 C   0  0  0  0  0  0  0  0  0  0  0  0
   16.8118   18.2104   22.6885 H   0  0  0  0  0  0  0  0  0  0  0  0
   17.3852   17.8163   21.0565 H   0  0  0  0  0  0  0  0  0  0  0  0
   17.8986   16.8290   22.4431 H   0  0  0  0  0  0  0  0  0  0  0  0
  1  2  1  0  0  0  0
  1  3  1  0  0  0  0
  1  4  1  0  0  0  0
  1  5  1  0  0  0  0
  5  6  1  0  0  0  0
  5  7  1  0  0  0  0
  5  8  1  0  0  0  0
  8  9  1  0  0  0  0
  8 10  1  0  0  0  0
  8 11  1  0  0  0  0
 11 12  1  0  0  0  0
 11 13  1  0  0  0  0
 11 14  1  0  0  0  0
 14 15  1  0  0  0  0
 14 16  1  0  0  0  0
 14 17  1  0  0  0  0
 17 18  1  0  0  0  0
 17 19  1  0  0  0  0
 17 20  1  0  0  0  0
M  END
> <VConfSearch Rank>
57

> <Conf_Id>
69

> <Delta U+W>
2.811

> <U+W>
-8.967

> <U>
49.216

> <W>
-58.183

> <W(PB)>
-60.064

> <W(SA)>
1.881

> <Valence>
2.929

> <Coulomb>
46.006

> <VdW>
0.281

> <VdW6>
-4.909

> <VdW12>
5.190

> <Bond>
0.156

> <Angle>
0.974

> <Pdih>
1.799

> <Idih>
0.000

> <Tether>
0.000

$$$$
VeraChem MOL file


 20 19  0  0  0  0  0  0  0  0999 V2000     
   18.6620   17.6014   21.5291 N   0  3  0  0  0  0  0  0  0  0  0  0
   19.0769   18.3362   20.9504 H   0  0  0  0  0  0  0  0  0  0  0  0
   19.1982   16.7445   21.3605 H   0  0  0  0  0  0  0  0  0  0  0  0
   17.7156   17.4344   21.1711 H   0  0  0  0  0  0  0  0  0  0  0  0
   18.6485   17.9765   22.9987 C   0  0  0  0  0  0  0  0  0  0  0  0
   18.1805   17.1462   23.5345 H   0  0  0  0  0  0  0  0  0  0  0  0
   18.0174   18.8600   23.1273 H   0  0  0  0  0  0  0  0  0  0  0  0
   20.0449   18.2378   23.6016 C   0  0  0  0  0  0  0  0  0  0  0  0
   19.9715   18.0936   24.6877 H   0  0  0  0  0  0  0  0  0  0  0  0
   20.7564   17.4811   23.2452 H   0  0  0  0  0  0  0  0  0  0  0  0
   20.5999   19.6632   23.3488 C   0  0  0  0  0  0  0  0  0  0  0  0
   21.5348   19.7713   23.9160 H   0  0  0  0  0  0  0  0  0  0  0  0
   19.9040   20.4059   23.7631 H   0  0  0  0  0  0  0  0  0  0  0  0
   20.8772   19.9893   21.8625 C   0  0  0  0  0  0  0  0  0  0  0  0
   21.4857   19.1925   21.4122 H   0  0  0  0  0  0  0  0  0  0  0  0
   19.9333   20.0350   21.3050 H   0  0  0  0  0  0  0  0  0  0  0  0
   21.6075   21.3401   21.7037 C   0  0  0  0  0  0  0  0  0  0  0  0
   22.5793   21.3270   22.2142 H   0  0  0  0  0  0  0  0  0  0  0  0
   21.7880   21.5611   20.6436 H   0  0  0  0  0  0  0  0  0  0  0  0
   21.0125   22.1622   22.1224 H   0  0  0  0  0  0  0  0  0  0  0  0
  1  2  1  0  0  0  0
  1  3  1  0  0  0  0
  1  4  1  0  0  0  0
  1  5  1  0  0  0  0
  5  6  1  0  0  0  0
  5  7  1  0  0  0  0
  5  8  1  0  0  0  0
  8  9  1  0  0  0  0
  8 10  1  0  0  0  0
  8 11  1  0  0  0  0
 11 12  1  0  0  0  0
 11 13  1  0  0  0  0
 11 14  1  0  0  0  0
 14 15  1  0  0  0  0
 14 16  1  0  0  0  0
 14 17  1  0  0  0  0
 17 18  1  0  0  0  0
 17 19  1  0  0  0  0
 17 20  1  0  0  0  0
M  END
> <VConfSearch Rank>
58

> <Conf_Id>
26

> <Delta U+W>
2.809

> <U+W>
-8.969

> <U>
49.216

> <W>
-58.185

> <W(PB)>
-60.088

> <W(SA)>
1.903

> <Valence>
2.929

> <Coulomb>
46.006

> <VdW>
0.281

> <VdW6>
-4.909

> <VdW12>
5.190

> <Bond>
0.156

> <Angle>
0.974

> <Pdih>
1.799

> <Idih>
0.000

> <Tether>
0.000

$$$$
VeraChem MOL file


 20 19  0  0  0  0  0  0  0  0999 V2000     
   17.9281   19.6114   23.3665 N   0  3  0  0  0  0  0  0  0  0  0  0
   17.9475   19.9998   22.4190 H   0  0  0  0  0  0  0  0  0  0  0  0
   17.2575   18.8366   23.3624 H   0  0  0  0  0  0  0  0  0  0  0  0
   17.5428   20.3363   23.9808 H   0  0  0  0  0  0  0  0  0  0  0  0
   19.3046   19.1633   23.8174 C   0  0  0  0  0  0  0  0  0  0  0  0
   19.2148   18.7912   24.8417 H   0  0  0  0  0  0  0  0  0  0  0  0
   19.9595   20.0384   23.8310 H   0  0  0  0  0  0  0  0  0  0  0  0
   19.9218   18.0660   22.9267 C   0  0  0  0  0  0  0  0  0  0  0  0
   20.8761   17.7488   23.3662 H   0  0  0  0  0  0  0  0  0  0  0  0
   19.2736   17.1799   22.9472 H   0  0  0  0  0  0  0  0  0  0  0  0
   20.1454   18.5009   21.4543 C   0  0  0  0  0  0  0  0  0  0  0  0
   19.1724   18.6602   20.9706 H   0  0  0  0  0  0  0  0  0  0  0  0
   20.6159   17.6715   20.9084 H   0  0  0  0  0  0  0  0  0  0  0  0
   21.0091   19.7759   21.2769 C   0  0  0  0  0  0  0  0  0  0  0  0
   21.0835   20.0025   20.2040 H   0  0  0  0  0  0  0  0  0  0  0  0
   20.5091   20.6407   21.7336 H   0  0  0  0  0  0  0  0  0  0  0  0
   22.4353   19.6357   21.8558 C   0  0  0  0  0  0  0  0  0  0  0  0
   22.9518   18.7671   21.4271 H   0  0  0  0  0  0  0  0  0  0  0  0
   23.0325   20.5278   21.6270 H   0  0  0  0  0  0  0  0  0  0  0  0
   22.4177   19.5214   22.9468 H   0  0  0  0  0  0  0  0  0  0  0  0
  1  2  1  0  0  0  0
  1  3  1  0  0  0  0
  1  4  1  0  0  0  0
  1  5  1  0  0  0  0
  5  6  1  0  0  0  0
  5  7  1  0  0  0  0
  5  8  1  0  0  0  0
  8  9  1  0  0  0  0
  8 10  1  0  0  0  0
  8 11  1  0  0  0  0
 11 12  1  0  0  0  0
 11 13  1  0  0  0  0
 11 14  1  0  0  0  0
 14 15  1  0  0  0  0
 14 16  1  0  0  0  0
 14 17  1  0  0  0  0
 17 18  1  0  0  0  0
 17 19  1  0  0  0  0
 17 20  1  0  0  0  0
M  END
> <VConfSearch Rank>
59

> <Conf_Id>
2

> <Delta U+W>
0.994

> <U+W>
-10.784

> <U>
47.562

> <W>
-58.346

> <W(PB)>
-60.221

> <W(SA)>
1.875

> <Valence>
2.149

> <Coulomb>
45.034

> <VdW>
0.378

> <VdW6>
-5.599

> <VdW12>
5.977

> <Bond>
0.185

> <Angle>
0.935

> <Pdih>
1.028

> <Idih>
0.000

> <Tether>
0.000

$$$$
VeraChem MOL file


 20 19  0  0  0  0  0  0  0  0999 V2000     
   18.4604   20.0737   23.8566 N   0  3  0  0  0  0  0  0  0  0  0  0
   17.8257   19.4346   24.3453 H   0  0  0  0  0  0  0  0  0  0  0  0
   19.3344   20.0988   24.3898 H   0  0  0  0  0  0  0  0  0  0  0  0
   18.0453   21.0094   23.9154 H   0  0  0  0  0  0  0  0  0  0  0  0
   18.6918   19.6489   22.4196 C   0  0  0  0  0  0  0  0  0  0  0  0
   19.3467   20.3864   21.9483 H   0  0  0  0  0  0  0  0  0  0  0  0
   17.7272   19.6745   21.9053 H   0  0  0  0  0  0  0  0  0  0  0  0
   19.3085   18.2422   22.2809 C   0  0  0  0  0  0  0  0  0  0  0  0
   18.6271   17.5057   22.7270 H   0  0  0  0  0  0  0  0  0  0  0  0
   19.3697   17.9862   21.2154 H   0  0  0  0  0  0  0  0  0  0  0  0
   20.7097   18.1011   22.9317 C   0  0  0  0  0  0  0  0  0  0  0  0
   21.0808   17.0823   22.7545 H   0  0  0  0  0  0  0  0  0  0  0  0
   20.6156   18.1971   24.0217 H   0  0  0  0  0  0  0  0  0  0  0  0
   21.7661   19.1175   22.4277 C   0  0  0  0  0  0  0  0  0  0  0  0
   21.4602   20.1415   22.6814 H   0  0  0  0  0  0  0  0  0  0  0  0
   22.7073   18.9416   22.9672 H   0  0  0  0  0  0  0  0  0  0  0  0
   22.0369   19.0181   20.9093 C   0  0  0  0  0  0  0  0  0  0  0  0
   21.1526   19.2978   20.3233 H   0  0  0  0  0  0  0  0  0  0  0  0
   22.8522   19.6933   20.6190 H   0  0  0  0  0  0  0  0  0  0  0  0
   22.3289   17.9985   20.6263 H   0  0  0  0  0  0  0  0  0  0  0  0
  1  2  1  0  0  0  0
  1  3  1  0  0  0  0
  1  4  1  0  0  0  0
  1  5  1  0  0  0  0
  5  6  1  0  0  0  0
  5  7  1  0  0  0  0
  5  8  1  0  0  0  0
  8  9  1  0  0  0  0
  8 10  1  0  0  0  0
  8 11  1  0  0  0  0
 11 12  1  0  0  0  0
 11 13  1  0  0  0  0
 11 14  1  0  0  0  0
 14 15  1  0  0  0  0
 14 16  1  0  0  0  0
 14 17  1  0  0  0  0
 17 18  1  0  0  0  0
 17 19  1  0  0  0  0
 17 20  1  0  0  0  0
M  END
> <VConfSearch Rank>
60

> <Conf_Id>
1

> <Delta U+W>
1.032

> <U+W>
-10.746

> <U>
47.562

> <W>
-58.308

> <W(PB)>
-60.184

> <W(SA)>
1.877

> <Valence>
2.149

> <Coulomb>
45.035

> <VdW>
0.378

> <VdW6>
-5.599

> <VdW12>
5.978

> <Bond>
0.185

> <Angle>
0.935

> <Pdih>
1.028

> <Idih>
0.000

> <Tether>
0.000

$$$$
VeraChem MOL file


 20 19  0  0  0  0  0  0  0  0999 V2000     
   18.8710   17.3301   21.8580 N   0  3  0  0  0  0  0  0  0  0  0  0
   17.8538   17.4489   21.8959 H   0  0  0  0  0  0  0  0  0  0  0  0
   19.1986   17.7952   21.0065 H   0  0  0  0  0  0  0  0  0  0  0  0
   19.0497   16.3275   21.7391 H   0  0  0  0  0  0  0  0  0  0  0  0
   19.5501   17.8799   23.0975 C   0  0  0  0  0  0  0  0  0  0  0  0
   20.6211   17.6933   23.0047 H   0  0  0  0  0  0  0  0  0  0  0  0
   19.1824   17.3085   23.9541 H   0  0  0  0  0  0  0  0  0  0  0  0
   19.2852   19.3812   23.3396 C   0  0  0  0  0  0  0  0  0  0  0  0
   18.1996   19.5272   23.4169 H   0  0  0  0  0  0  0  0  0  0  0  0
   19.6972   19.6704   24.3154 H   0  0  0  0  0  0  0  0  0  0  0  0
   19.8414   20.3249   22.2394 C   0  0  0  0  0  0  0  0  0  0  0  0
   19.2644   21.2593   22.2745 H   0  0  0  0  0  0  0  0  0  0  0  0
   19.6587   19.9063   21.2414 H   0  0  0  0  0  0  0  0  0  0  0  0
   21.3384   20.6993   22.3908 C   0  0  0  0  0  0  0  0  0  0  0  0
   21.5887   21.4374   21.6158 H   0  0  0  0  0  0  0  0  0  0  0  0
   21.4985   21.2053   23.3531 H   0  0  0  0  0  0  0  0  0  0  0  0
   22.3149   19.5089   22.2677 C   0  0  0  0  0  0  0  0  0  0  0  0
   22.1061   18.9125   21.3702 H   0  0  0  0  0  0  0  0  0  0  0  0
   23.3493   19.8693   22.1972 H   0  0  0  0  0  0  0  0  0  0  0  0
   22.2605   18.8550   23.1461 H   0  0  0  0  0  0  0  0  0  0  0  0
  1  2  1  0  0  0  0
  1  3  1  0  0  0  0
  1  4  1  0  0  0  0
  1  5  1  0  0  0  0
  5  6  1  0  0  0  0
  5  7  1  0  0  0  0
  5  8  1  0  0  0  0
  8  9  1  0  0  0  0
  8 10  1  0  0  0  0
  8 11  1  0  0  0  0
 11 12  1  0  0  0  0
 11 13  1  0  0  0  0
 11 14  1  0  0  0  0
 14 15  1  0  0  0  0
 14 16  1  0  0  0  0
 14 17  1  0  0  0  0
 17 18  1  0  0  0  0
 17 19  1  0  0  0  0
 17 20  1  0  0  0  0
M  END
> <VConfSearch Rank>
61

> <Conf_Id>
80

> <Delta U+W>
2.920

> <U+W>
-8.857

> <U>
49.434

> <W>
-58.292

> <W(PB)>
-60.170

> <W(SA)>
1.879

> <Valence>
3.798

> <Coulomb>
45.253

> <VdW>
0.384

> <VdW6>
-5.595

> <VdW12>
5.979

> <Bond>
0.198

> <Angle>
1.368

> <Pdih>
2.231

> <Idih>
0.000

> <Tether>
0.000

$$$$
VeraChem MOL file


 20 19  0  0  0  0  0  0  0  0999 V2000     
   20.9829   17.3899   23.7336 N   0  3  0  0  0  0  0  0  0  0  0  0
   21.6433   17.5658   24.4972 H   0  0  0  0  0  0  0  0  0  0  0  0
   20.6531   16.4250   23.8412 H   0  0  0  0  0  0  0  0  0  0  0  0
   21.5141   17.4284   22.8589 H   0  0  0  0  0  0  0  0  0  0  0  0
   19.8354   18.3812   23.7402 C   0  0  0  0  0  0  0  0  0  0  0  0
   19.2944   18.2510   24.6814 H   0  0  0  0  0  0  0  0  0  0  0  0
   19.1590   18.1179   22.9255 H   0  0  0  0  0  0  0  0  0  0  0  0
   20.2822   19.8533   23.6132 C   0  0  0  0  0  0  0  0  0  0  0  0
   19.4143   20.5104   23.7567 H   0  0  0  0  0  0  0  0  0  0  0  0
   20.9665   20.0741   24.4431 H   0  0  0  0  0  0  0  0  0  0  0  0
   20.9861   20.2055   22.2750 C   0  0  0  0  0  0  0  0  0  0  0  0
   21.6844   19.4104   21.9836 H   0  0  0  0  0  0  0  0  0  0  0  0
   21.6098   21.0937   22.4466 H   0  0  0  0  0  0  0  0  0  0  0  0
   20.0320   20.5305   21.0968 C   0  0  0  0  0  0  0  0  0  0  0  0
   19.3996   21.3904   21.3583 H   0  0  0  0  0  0  0  0  0  0  0  0
   20.6404   20.8522   20.2398 H   0  0  0  0  0  0  0  0  0  0  0  0
   19.1383   19.3530   20.6490 C   0  0  0  0  0  0  0  0  0  0  0  0
   18.3563   19.1415   21.3878 H   0  0  0  0  0  0  0  0  0  0  0  0
   18.6334   19.5944   19.7047 H   0  0  0  0  0  0  0  0  0  0  0  0
   19.7291   18.4417   20.4895 H   0  0  0  0  0  0  0  0  0  0  0  0
  1  2  1  0  0  0  0
  1  3  1  0  0  0  0
  1  4  1  0  0  0  0
  1  5  1  0  0  0  0
  5  6  1  0  0  0  0
  5  7  1  0  0  0  0
  5  8  1  0  0  0  0
  8  9  1  0  0  0  0
  8 10  1  0  0  0  0
  8 11  1  0  0  0  0
 11 12  1  0  0  0  0
 11 13  1  0  0  0  0
 11 14  1  0  0  0  0
 14 15  1  0  0  0  0
 14 16  1  0  0  0  0
 14 17  1  0  0  0  0
 17 18  1  0  0  0  0
 17 19  1  0  0  0  0
 17 20  1  0  0  0  0
M  END
> <VConfSearch Rank>
62

> <Conf_Id>
65

> <Delta U+W>
2.949

> <U+W>
-8.829

> <U>
49.435

> <W>
-58.263

> <W(PB)>
-60.125

> <W(SA)>
1.862

> <Valence>
3.797

> <Coulomb>
45.253

> <VdW>
0.384

> <VdW6>
-5.596

> <VdW12>
5.980

> <Bond>
0.198

> <Angle>
1.369

> <Pdih>
2.230

> <Idih>
0.000

> <Tether>
0.000

$$$$
VeraChem MOL file


 20 19  0  0  0  0  0  0  0  0999 V2000     
   21.9668   19.8122   22.7955 N   0  3  0  0  0  0  0  0  0  0  0  0
   22.6557   19.7499   23.5527 H   0  0  0  0  0  0  0  0  0  0  0  0
   21.7423   18.8551   22.5068 H   0  0  0  0  0  0  0  0  0  0  0  0
   22.4334   20.2677   22.0049 H   0  0  0  0  0  0  0  0  0  0  0  0
   20.7233   20.5662   23.2253 C   0  0  0  0  0  0  0  0  0  0  0  0
   21.0430   21.5711   23.5142 H   0  0  0  0  0  0  0  0  0  0  0  0
   20.3040   20.0768   24.1084 H   0  0  0  0  0  0  0  0  0  0  0  0
   19.6466   20.6769   22.1268 C   0  0  0  0  0  0  0  0  0  0  0  0
   19.0177   21.5456   22.3626 H   0  0  0  0  0  0  0  0  0  0  0  0
   20.1208   20.9049   21.1630 H   0  0  0  0  0  0  0  0  0  0  0  0
   18.7155   19.4427   21.9867 C   0  0  0  0  0  0  0  0  0  0  0  0
   17.9708   19.6794   21.2141 H   0  0  0  0  0  0  0  0  0  0  0  0
   18.1415   19.2996   22.9127 H   0  0  0  0  0  0  0  0  0  0  0  0
   19.4178   18.1201   21.5865 C   0  0  0  0  0  0  0  0  0  0  0  0
   18.7453   17.5521   20.9283 H   0  0  0  0  0  0  0  0  0  0  0  0
   20.3133   18.3271   20.9853 H   0  0  0  0  0  0  0  0  0  0  0  0
   19.7605   17.2229   22.7995 C   0  0  0  0  0  0  0  0  0  0  0  0
   20.3741   17.7409   23.5444 H   0  0  0  0  0  0  0  0  0  0  0  0
   18.8442   16.8889   23.3035 H   0  0  0  0  0  0  0  0  0  0  0  0
   20.3047   16.3261   22.4759 H   0  0  0  0  0  0  0  0  0  0  0  0
  1  2  1  0  0  0  0
  1  3  1  0  0  0  0
  1  4  1  0  0  0  0
  1  5  1  0  0  0  0
  5  6  1  0  0  0  0
  5  7  1  0  0  0  0
  5  8  1  0  0  0  0
  8  9  1  0  0  0  0
  8 10  1  0  0  0  0
  8 11  1  0  0  0  0
 11 12  1  0  0  0  0
 11 13  1  0  0  0  0
 11 14  1  0  0  0  0
 14 15  1  0  0  0  0
 14 16  1  0  0  0  0
 14 17  1  0  0  0  0
 17 18  1  0  0  0  0
 17 19  1  0  0  0  0
 17 20  1  0  0  0  0
M  END
> <VConfSearch Rank>
63

> <Conf_Id>
77

> <Delta U+W>
5.366

> <U+W>
-6.412

> <U>
51.542

> <W>
-57.954

> <W(PB)>
-59.811

> <W(SA)>
1.857

> <Valence>
5.347

> <Coulomb>
45.870

> <VdW>
0.325

> <VdW6>
-6.161

> <VdW12>
6.486

> <Bond>
0.201

> <Angle>
1.484

> <Pdih>
3.662

> <Idih>
0.000

> <Tether>
0.000

$$$$
VeraChem MOL file


 20 19  0  0  0  0  0  0  0  0999 V2000     
   19.9902   17.1511   21.8974 N   0  3  0  0  0  0  0  0  0  0  0  0
   20.4464   16.9035   21.0137 H   0  0  0  0  0  0  0  0  0  0  0  0
   20.7252   17.4435   22.5485 H   0  0  0  0  0  0  0  0  0  0  0  0
   19.5754   16.2906   22.2702 H   0  0  0  0  0  0  0  0  0  0  0  0
   18.9530   18.2411   21.7088 C   0  0  0  0  0  0  0  0  0  0  0  0
   18.4536   18.4193   22.6648 H   0  0  0  0  0  0  0  0  0  0  0  0
   18.2101   17.8567   21.0046 H   0  0  0  0  0  0  0  0  0  0  0  0
   19.5267   19.5644   21.1627 C   0  0  0  0  0  0  0  0  0  0  0  0
   20.2528   19.3541   20.3662 H   0  0  0  0  0  0  0  0  0  0  0  0
   18.7050   20.1104   20.6805 H   0  0  0  0  0  0  0  0  0  0  0  0
   20.1568   20.5015   22.2278 C   0  0  0  0  0  0  0  0  0  0  0  0
   19.3902   20.8179   22.9487 H   0  0  0  0  0  0  0  0  0  0  0  0
   20.4709   21.4198   21.7124 H   0  0  0  0  0  0  0  0  0  0  0  0
   21.3865   19.9274   22.9767 C   0  0  0  0  0  0  0  0  0  0  0  0
   21.9281   19.2168   22.3381 H   0  0  0  0  0  0  0  0  0  0  0  0
   22.0924   20.7474   23.1704 H   0  0  0  0  0  0  0  0  0  0  0  0
   21.0242   19.2848   24.3367 C   0  0  0  0  0  0  0  0  0  0  0  0
   21.9135   18.8434   24.8052 H   0  0  0  0  0  0  0  0  0  0  0  0
   20.6282   20.0408   25.0274 H   0  0  0  0  0  0  0  0  0  0  0  0
   20.2668   18.4994   24.2411 H   0  0  0  0  0  0  0  0  0  0  0  0
  1  2  1  0  0  0  0
  1  3  1  0  0  0  0
  1  4  1  0  0  0  0
  1  5  1  0  0  0  0
  5  6  1  0  0  0  0
  5  7  1  0  0  0  0
  5  8  1  0  0  0  0
  8  9  1  0  0  0  0
  8 10  1  0  0  0  0
  8 11  1  0  0  0  0
 11 12  1  0  0  0  0
 11 13  1  0  0  0  0
 11 14  1  0  0  0  0
 14 15  1  0  0  0  0
 14 16  1  0  0  0  0
 14 17  1  0  0  0  0
 17 18  1  0  0  0  0
 17 19  1  0  0  0  0
 17 20  1  0  0  0  0
M  END
> <VConfSearch Rank>
64

> <Conf_Id>
67

> <Delta U+W>
5.353

> <U+W>
-6.425

> <U>
51.541

> <W>
-57.966

> <W(PB)>
-59.821

> <W(SA)>
1.855

> <Valence>
5.347

> <Coulomb>
45.870

> <VdW>
0.325

> <VdW6>
-6.161

> <VdW12>
6.486

> <Bond>
0.201

> <Angle>
1.485

> <Pdih>
3.662

> <Idih>
0.000

> <Tether>
0.000

$$$$
VeraChem MOL file


 20 19  0  0  0  0  0  0  0  0999 V2000     
   18.2947   19.0397   25.0891 N   0  3  0  0  0  0  0  0  0  0  0  0
   18.8369   18.3540   25.6241 H   0  0  0  0  0  0  0  0  0  0  0  0
   17.9135   19.7099   25.7651 H   0  0  0  0  0  0  0  0  0  0  0  0
   17.4966   18.5415   24.6825 H   0  0  0  0  0  0  0  0  0  0  0  0
   19.1346   19.7243   24.0297 C   0  0  0  0  0  0  0  0  0  0  0  0
   19.9450   20.2577   24.5341 H   0  0  0  0  0  0  0  0  0  0  0  0
   18.5041   20.4591   23.5218 H   0  0  0  0  0  0  0  0  0  0  0  0
   19.7227   18.7452   22.9979 C   0  0  0  0  0  0  0  0  0  0  0  0
   20.3422   17.9996   23.5140 H   0  0  0  0  0  0  0  0  0  0  0  0
   18.9063   18.2004   22.5052 H   0  0  0  0  0  0  0  0  0  0  0  0
   20.5707   19.4822   21.9375 C   0  0  0  0  0  0  0  0  0  0  0  0
   21.3834   20.0304   22.4344 H   0  0  0  0  0  0  0  0  0  0  0  0
   19.9492   20.2309   21.4267 H   0  0  0  0  0  0  0  0  0  0  0  0
   21.1666   18.5088   20.8959 C   0  0  0  0  0  0  0  0  0  0  0  0
   21.7908   17.7593   21.4026 H   0  0  0  0  0  0  0  0  0  0  0  0
   20.3568   17.9598   20.3949 H   0  0  0  0  0  0  0  0  0  0  0  0
   22.0130   19.2496   19.8387 C   0  0  0  0  0  0  0  0  0  0  0  0
   22.8523   19.7808   20.3061 H   0  0  0  0  0  0  0  0  0  0  0  0
   22.4273   18.5422   19.1086 H   0  0  0  0  0  0  0  0  0  0  0  0
   21.4071   19.9828   19.2905 H   0  0  0  0  0  0  0  0  0  0  0  0
  1  2  1  0  0  0  0
  1  3  1  0  0  0  0
  1  4  1  0  0  0  0
  1  5  1  0  0  0  0
  5  6  1  0  0  0  0
  5  7  1  0  0  0  0
  5  8  1  0  0  0  0
  8  9  1  0  0  0  0
  8 10  1  0  0  0  0
  8 11  1  0  0  0  0
 11 12  1  0  0  0  0
 11 13  1  0  0  0  0
 11 14  1  0  0  0  0
 14 15  1  0  0  0  0
 14 16  1  0  0  0  0
 14 17  1  0  0  0  0
 17 18  1  0  0  0  0
 17 19  1  0  0  0  0
 17 20  1  0  0  0  0
M  END
> <VConfSearch Rank>
65

> <Conf_Id>
72

> <Delta U+W>
0.000

> <U+W>
-11.778

> <U>
45.772

> <W>
-57.550

> <W(PB)>
-59.511

> <W(SA)>
1.961

> <Valence>
1.299

> <Coulomb>
44.177

> <VdW>
0.297

> <VdW6>
-3.490

> <VdW12>
3.786

> <Bond>
0.096

> <Angle>
0.381

> <Pdih>
0.822

> <Idih>
0.000

> <Tether>
0.000

$$$$
VeraChem MOL file


 20 19  0  0  0  0  0  0  0  0999 V2000     
   17.9560   17.0958   22.1887 N   0  3  0  0  0  0  0  0  0  0  0  0
   18.5694   16.3745   22.5811 H   0  0  0  0  0  0  0  0  0  0  0  0
   17.3476   17.4194   22.9473 H   0  0  0  0  0  0  0  0  0  0  0  0
   17.3528   16.6313   21.5016 H   0  0  0  0  0  0  0  0  0  0  0  0
   18.7429   18.2332   21.5692 C   0  0  0  0  0  0  0  0  0  0  0  0
   18.0296   18.9456   21.1460 H   0  0  0  0  0  0  0  0  0  0  0  0
   19.3435   17.8229   20.7528 H   0  0  0  0  0  0  0  0  0  0  0  0
   19.6594   18.9532   22.5746 C   0  0  0  0  0  0  0  0  0  0  0  0
   19.0542   19.3498   23.4007 H   0  0  0  0  0  0  0  0  0  0  0  0
   20.3587   18.2258   23.0057 H   0  0  0  0  0  0  0  0  0  0  0  0
   20.4400   20.1062   21.9006 C   0  0  0  0  0  0  0  0  0  0  0  0
   19.7263   20.7825   21.4098 H   0  0  0  0  0  0  0  0  0  0  0  0
   21.0809   19.7033   21.1041 H   0  0  0  0  0  0  0  0  0  0  0  0
   21.2998   20.9310   22.8892 C   0  0  0  0  0  0  0  0  0  0  0  0
   21.7333   21.7858   22.3512 H   0  0  0  0  0  0  0  0  0  0  0  0
   20.6589   21.3558   23.6745 H   0  0  0  0  0  0  0  0  0  0  0  0
   22.4441   20.1174   23.5357 C   0  0  0  0  0  0  0  0  0  0  0  0
   23.0837   19.6583   22.7708 H   0  0  0  0  0  0  0  0  0  0  0  0
   23.0758   20.7678   24.1545 H   0  0  0  0  0  0  0  0  0  0  0  0
   22.0572   19.3214   24.1839 H   0  0  0  0  0  0  0  0  0  0  0  0
  1  2  1  0  0  0  0
  1  3  1  0  0  0  0
  1  4  1  0  0  0  0
  1  5  1  0  0  0  0
  5  6  1  0  0  0  0
  5  7  1  0  0  0  0
  5  8  1  0  0  0  0
  8  9  1  0  0  0  0
  8 10  1  0  0  0  0
  8 11  1  0  0  0  0
 11 12  1  0  0  0  0
 11 13  1  0  0  0  0
 11 14  1  0  0  0  0
 14 15  1  0  0  0  0
 14 16  1  0  0  0  0
 14 17  1  0  0  0  0
 17 18  1  0  0  0  0
 17 19  1  0  0  0  0
 17 20  1  0  0  0  0
M  END
> <VConfSearch Rank>
66

> <Conf_Id>
42

> <Delta U+W>
0.508

> <U+W>
-11.270

> <U>
46.486

> <W>
-57.756

> <W(PB)>
-59.705

> <W(SA)>
1.949

> <Valence>
1.806

> <Coulomb>
44.248

> <VdW>
0.433

> <VdW6>
-4.089

> <VdW12>
4.522

> <Bond>
0.131

> <Angle>
0.628

> <Pdih>
1.047

> <Idih>
0.000

> <Tether>
0.000

$$$$
VeraChem MOL file


 20 19  0  0  0  0  0  0  0  0999 V2000     
   20.6287   17.9490   19.7297 N   0  3  0  0  0  0  0  0  0  0  0  0
   21.6343   17.7749   19.8236 H   0  0  0  0  0  0  0  0  0  0  0  0
   20.1479   17.0770   19.9722 H   0  0  0  0  0  0  0  0  0  0  0  0
   20.4486   18.1210   18.7349 H   0  0  0  0  0  0  0  0  0  0  0  0
   20.1713   19.1074   20.5931 C   0  0  0  0  0  0  0  0  0  0  0  0
   19.1016   19.2550   20.4210 H   0  0  0  0  0  0  0  0  0  0  0  0
   20.6994   20.0052   20.2605 H   0  0  0  0  0  0  0  0  0  0  0  0
   20.4277   18.8819   22.0939 C   0  0  0  0  0  0  0  0  0  0  0  0
   19.9080   17.9695   22.4124 H   0  0  0  0  0  0  0  0  0  0  0  0
   21.5008   18.7184   22.2601 H   0  0  0  0  0  0  0  0  0  0  0  0
   19.9483   20.0881   22.9355 C   0  0  0  0  0  0  0  0  0  0  0  0
   18.8655   20.2234   22.8052 H   0  0  0  0  0  0  0  0  0  0  0  0
   20.4217   21.0027   22.5519 H   0  0  0  0  0  0  0  0  0  0  0  0
   20.2760   19.9591   24.4430 C   0  0  0  0  0  0  0  0  0  0  0  0
   21.3608   19.8475   24.5796 H   0  0  0  0  0  0  0  0  0  0  0  0
   19.9983   20.8962   24.9457 H   0  0  0  0  0  0  0  0  0  0  0  0
   19.5419   18.7871   25.1337 C   0  0  0  0  0  0  0  0  0  0  0  0
   19.8770   17.8168   24.7468 H   0  0  0  0  0  0  0  0  0  0  0  0
   19.7362   18.7955   26.2141 H   0  0  0  0  0  0  0  0  0  0  0  0
   18.4564   18.8598   24.9879 H   0  0  0  0  0  0  0  0  0  0  0  0
  1  2  1  0  0  0  0
  1  3  1  0  0  0  0
  1  4  1  0  0  0  0
  1  5  1  0  0  0  0
  5  6  1  0  0  0  0
  5  7  1  0  0  0  0
  5  8  1  0  0  0  0
  8  9  1  0  0  0  0
  8 10  1  0  0  0  0
  8 11  1  0  0  0  0
 11 12  1  0  0  0  0
 11 13  1  0  0  0  0
 11 14  1  0  0  0  0
 14 15  1  0  0  0  0
 14 16  1  0  0  0  0
 14 17  1  0  0  0  0
 17 18  1  0  0  0  0
 17 19  1  0  0  0  0
 17 20  1  0  0  0  0
M  END
> <VConfSearch Rank>
67

> <Conf_Id>
41

> <Delta U+W>
0.515

> <U+W>
-11.263

> <U>
46.486

> <W>
-57.749

> <W(PB)>
-59.685

> <W(SA)>
1.936

> <Valence>
1.806

> <Coulomb>
44.248

> <VdW>
0.433

> <VdW6>
-4.089

> <VdW12>
4.522

> <Bond>
0.131

> <Angle>
0.628

> <Pdih>
1.047

> <Idih>
0.000

> <Tether>
0.000

$$$$
VeraChem MOL file


 20 19  0  0  0  0  0  0  0  0999 V2000     
   20.4610   17.3732   24.5791 N   0  3  0  0  0  0  0  0  0  0  0  0
   20.7217   17.1668   25.5491 H   0  0  0  0  0  0  0  0  0  0  0  0
   19.4494   17.5331   24.5700 H   0  0  0  0  0  0  0  0  0  0  0  0
   20.6381   16.5225   24.0358 H   0  0  0  0  0  0  0  0  0  0  0  0
   21.2263   18.5626   24.0316 C   0  0  0  0  0  0  0  0  0  0  0  0
   22.2928   18.3358   24.1145 H   0  0  0  0  0  0  0  0  0  0  0  0
   21.0124   19.4263   24.6670 H   0  0  0  0  0  0  0  0  0  0  0  0
   20.8901   18.9009   22.5659 C   0  0  0  0  0  0  0  0  0  0  0  0
   21.5760   19.6907   22.2351 H   0  0  0  0  0  0  0  0  0  0  0  0
   21.0895   18.0261   21.9329 H   0  0  0  0  0  0  0  0  0  0  0  0
   19.4245   19.3686   22.3806 C   0  0  0  0  0  0  0  0  0  0  0  0
   19.2390   20.2575   22.9994 H   0  0  0  0  0  0  0  0  0  0  0  0
   18.7431   18.5895   22.7471 H   0  0  0  0  0  0  0  0  0  0  0  0
   19.0575   19.6779   20.9087 C   0  0  0  0  0  0  0  0  0  0  0  0
   19.2284   18.7873   20.2877 H   0  0  0  0  0  0  0  0  0  0  0  0
   17.9805   19.8894   20.8514 H   0  0  0  0  0  0  0  0  0  0  0  0
   19.8314   20.8793   20.3193 C   0  0  0  0  0  0  0  0  0  0  0  0
   20.9048   20.6683   20.2384 H   0  0  0  0  0  0  0  0  0  0  0  0
   19.4657   21.1143   19.3114 H   0  0  0  0  0  0  0  0  0  0  0  0
   19.7023   21.7755   20.9399 H   0  0  0  0  0  0  0  0  0  0  0  0
  1  2  1  0  0  0  0
  1  3  1  0  0  0  0
  1  4  1  0  0  0  0
  1  5  1  0  0  0  0
  5  6  1  0  0  0  0
  5  7  1  0  0  0  0
  5  8  1  0  0  0  0
  8  9  1  0  0  0  0
  8 10  1  0  0  0  0
  8 11  1  0  0  0  0
 11 12  1  0  0  0  0
 11 13  1  0  0  0  0
 11 14  1  0  0  0  0
 14 15  1  0  0  0  0
 14 16  1  0  0  0  0
 14 17  1  0  0  0  0
 17 18  1  0  0  0  0
 17 19  1  0  0  0  0
 17 20  1  0  0  0  0
M  END
> <VConfSearch Rank>
68

> <Conf_Id>
33

> <Delta U+W>
0.703

> <U+W>
-11.075

> <U>
47.080

> <W>
-58.154

> <W(PB)>
-60.053

> <W(SA)>
1.899

> <Valence>
1.943

> <Coulomb>
44.572

> <VdW>
0.565

> <VdW6>
-4.575

> <VdW12>
5.139

> <Bond>
0.158

> <Angle>
0.700

> <Pdih>
1.085

> <Idih>
0.000

> <Tether>
0.000

$$$$
VeraChem MOL file


 20 19  0  0  0  0  0  0  0  0999 V2000     
   22.4023   19.7360   20.9813 N   0  3  0  0  0  0  0  0  0  0  0  0
   23.3896   19.5971   20.7417 H   0  0  0  0  0  0  0  0  0  0  0  0
   21.9320   20.0589   20.1299 H   0  0  0  0  0  0  0  0  0  0  0  0
   22.3649   20.5041   21.6577 H   0  0  0  0  0  0  0  0  0  0  0  0
   21.7726   18.4695   21.5287 C   0  0  0  0  0  0  0  0  0  0  0  0
   22.3331   18.1679   22.4177 H   0  0  0  0  0  0  0  0  0  0  0  0
   21.8898   17.6887   20.7722 H   0  0  0  0  0  0  0  0  0  0  0  0
   20.2795   18.6163   21.8819 C   0  0  0  0  0  0  0  0  0  0  0  0
   19.7220   18.9360   20.9915 H   0  0  0  0  0  0  0  0  0  0  0  0
   19.8967   17.6244   22.1526 H   0  0  0  0  0  0  0  0  0  0  0  0
   20.0348   19.6080   23.0471 C   0  0  0  0  0  0  0  0  0  0  0  0
   20.4521   20.5893   22.7856 H   0  0  0  0  0  0  0  0  0  0  0  0
   20.5773   19.2695   23.9408 H   0  0  0  0  0  0  0  0  0  0  0  0
   18.5373   19.7963   23.3922 C   0  0  0  0  0  0  0  0  0  0  0  0
   18.4468   20.5935   24.1434 H   0  0  0  0  0  0  0  0  0  0  0  0
   17.9925   20.1480   22.5048 H   0  0  0  0  0  0  0  0  0  0  0  0
   17.8654   18.5173   23.9421 C   0  0  0  0  0  0  0  0  0  0  0  0
   18.4101   18.1273   24.8117 H   0  0  0  0  0  0  0  0  0  0  0  0
   16.8364   18.7304   24.2594 H   0  0  0  0  0  0  0  0  0  0  0  0
   17.8181   17.7271   23.1827 H   0  0  0  0  0  0  0  0  0  0  0  0
  1  2  1  0  0  0  0
  1  3  1  0  0  0  0
  1  4  1  0  0  0  0
  1  5  1  0  0  0  0
  5  6  1  0  0  0  0
  5  7  1  0  0  0  0
  5  8  1  0  0  0  0
  8  9  1  0  0  0  0
  8 10  1  0  0  0  0
  8 11  1  0  0  0  0
 11 12  1  0  0  0  0
 11 13  1  0  0  0  0
 11 14  1  0  0  0  0
 14 15  1  0  0  0  0
 14 16  1  0  0  0  0
 14 17  1  0  0  0  0
 17 18  1  0  0  0  0
 17 19  1  0  0  0  0
 17 20  1  0  0  0  0
M  END
> <VConfSearch Rank>
69

> <Conf_Id>
24

> <Delta U+W>
0.847

> <U+W>
-10.931

> <U>
47.080

> <W>
-58.011

> <W(PB)>
-59.914

> <W(SA)>
1.903

> <Valence>
1.943

> <Coulomb>
44.572

> <VdW>
0.565

> <VdW6>
-4.575

> <VdW12>
5.140

> <Bond>
0.158

> <Angle>
0.700

> <Pdih>
1.085

> <Idih>
0.000

> <Tether>
0.000

$$$$
VeraChem MOL file


 20 19  0  0  0  0  0  0  0  0999 V2000     
   20.6470   19.6996   19.8383 N   0  3  0  0  0  0  0  0  0  0  0  0
   21.3282   20.3615   19.4520 H   0  0  0  0  0  0  0  0  0  0  0  0
   21.0402   18.7615   19.7136 H   0  0  0  0  0  0  0  0  0  0  0  0
   19.8105   19.7565   19.2489 H   0  0  0  0  0  0  0  0  0  0  0  0
   20.3365   19.9951   21.2918 C   0  0  0  0  0  0  0  0  0  0  0  0
   19.9505   21.0161   21.3543 H   0  0  0  0  0  0  0  0  0  0  0  0
   21.2740   19.9468   21.8520 H   0  0  0  0  0  0  0  0  0  0  0  0
   19.3156   19.0172   21.9036 C   0  0  0  0  0  0  0  0  0  0  0  0
   18.3929   19.0430   21.3089 H   0  0  0  0  0  0  0  0  0  0  0  0
   19.6981   17.9909   21.8332 H   0  0  0  0  0  0  0  0  0  0  0  0
   18.9705   19.3542   23.3757 C   0  0  0  0  0  0  0  0  0  0  0  0
   18.2321   18.6285   23.7437 H   0  0  0  0  0  0  0  0  0  0  0  0
   18.4739   20.3339   23.4102 H   0  0  0  0  0  0  0  0  0  0  0  0
   20.1839   19.3760   24.3402 C   0  0  0  0  0  0  0  0  0  0  0  0
   20.8857   20.1696   24.0496 H   0  0  0  0  0  0  0  0  0  0  0  0
   19.8277   19.6424   25.3452 H   0  0  0  0  0  0  0  0  0  0  0  0
   20.9307   18.0250   24.4189 C   0  0  0  0  0  0  0  0  0  0  0  0
   21.7196   18.0656   25.1811 H   0  0  0  0  0  0  0  0  0  0  0  0
   20.2459   17.2103   24.6879 H   0  0  0  0  0  0  0  0  0  0  0  0
   21.4079   17.7724   23.4638 H   0  0  0  0  0  0  0  0  0  0  0  0
  1  2  1  0  0  0  0
  1  3  1  0  0  0  0
  1  4  1  0  0  0  0
  1  5  1  0  0  0  0
  5  6  1  0  0  0  0
  5  7  1  0  0  0  0
  5  8  1  0  0  0  0
  8  9  1  0  0  0  0
  8 10  1  0  0  0  0
  8 11  1  0  0  0  0
 11 12  1  0  0  0  0
 11 13  1  0  0  0  0
 11 14  1  0  0  0  0
 14 15  1  0  0  0  0
 14 16  1  0  0  0  0
 14 17  1  0  0  0  0
 17 18  1  0  0  0  0
 17 19  1  0  0  0  0
 17 20  1  0  0  0  0
M  END
> <VConfSearch Rank>
70

> <Conf_Id>
64

> <Delta U+W>
0.707

> <U+W>
-11.070

> <U>
47.077

> <W>
-58.148

> <W(PB)>
-60.054

> <W(SA)>
1.906

> <Valence>
2.039

> <Coulomb>
44.655

> <VdW>
0.383

> <VdW6>
-4.912

> <VdW12>
5.295

> <Bond>
0.159

> <Angle>
0.856

> <Pdih>
1.024

> <Idih>
0.000

> <Tether>
0.000

$$$$
VeraChem MOL file


 20 19  0  0  0  0  0  0  0  0999 V2000     
   20.8686   20.9911   24.3281 N   0  3  0  0  0  0  0  0  0  0  0  0
   21.8315   21.3336   24.2511 H   0  0  0  0  0  0  0  0  0  0  0  0
   20.2664   21.6786   23.8646 H   0  0  0  0  0  0  0  0  0  0  0  0
   20.6264   21.0072   25.3244 H   0  0  0  0  0  0  0  0  0  0  0  0
   20.7108   19.6067   23.7324 C   0  0  0  0  0  0  0  0  0  0  0  0
   19.6729   19.2954   23.8768 H   0  0  0  0  0  0  0  0  0  0  0  0
   21.3559   18.9229   24.2906 H   0  0  0  0  0  0  0  0  0  0  0  0
   21.0667   19.5480   22.2349 C   0  0  0  0  0  0  0  0  0  0  0  0
   20.4258   20.2409   21.6748 H   0  0  0  0  0  0  0  0  0  0  0  0
   22.0969   19.9020   22.0966 H   0  0  0  0  0  0  0  0  0  0  0  0
   20.9458   18.1205   21.6455 C   0  0  0  0  0  0  0  0  0  0  0  0
   21.6844   17.4695   22.1336 H   0  0  0  0  0  0  0  0  0  0  0  0
   21.2241   18.1491   20.5829 H   0  0  0  0  0  0  0  0  0  0  0  0
   19.5432   17.4752   21.7849 C   0  0  0  0  0  0  0  0  0  0  0  0
   19.5779   16.4651   21.3533 H   0  0  0  0  0  0  0  0  0  0  0  0
   19.2910   17.3406   22.8456 H   0  0  0  0  0  0  0  0  0  0  0  0
   18.4247   18.2784   21.0827 C   0  0  0  0  0  0  0  0  0  0  0  0
   18.6630   18.4446   20.0242 H   0  0  0  0  0  0  0  0  0  0  0  0
   17.4726   17.7343   21.1308 H   0  0  0  0  0  0  0  0  0  0  0  0
   18.2706   19.2549   21.5584 H   0  0  0  0  0  0  0  0  0  0  0  0
  1  2  1  0  0  0  0
  1  3  1  0  0  0  0
  1  4  1  0  0  0  0
  1  5  1  0  0  0  0
  5  6  1  0  0  0  0
  5  7  1  0  0  0  0
  5  8  1  0  0  0  0
  8  9  1  0  0  0  0
  8 10  1  0  0  0  0
  8 11  1  0  0  0  0
 11 12  1  0  0  0  0
 11 13  1  0  0  0  0
 11 14  1  0  0  0  0
 14 15  1  0  0  0  0
 14 16  1  0  0  0  0
 14 17  1  0  0  0  0
 17 18  1  0  0  0  0
 17 19  1  0  0  0  0
 17 20  1  0  0  0  0
M  END
> <VConfSearch Rank>
71

> <Conf_Id>
22

> <Delta U+W>
0.731

> <U+W>
-11.047

> <U>
47.078

> <W>
-58.125

> <W(PB)>
-60.031

> <W(SA)>
1.906

> <Valence>
2.039

> <Coulomb>
44.655

> <VdW>
0.383

> <VdW6>
-4.913

> <VdW12>
5.296

> <Bond>
0.159

> <Angle>
0.856

> <Pdih>
1.024

> <Idih>
0.000

> <Tether>
0.000

$$$$
VeraChem MOL file


 20 19  0  0  0  0  0  0  0  0999 V2000     
   22.2268   17.4028   22.7887 N   0  3  0  0  0  0  0  0  0  0  0  0
   21.7744   16.6481   23.3143 H   0  0  0  0  0  0  0  0  0  0  0  0
   22.5379   17.0044   21.8972 H   0  0  0  0  0  0  0  0  0  0  0  0
   23.0715   17.6625   23.3088 H   0  0  0  0  0  0  0  0  0  0  0  0
   21.3022   18.5866   22.5883 C   0  0  0  0  0  0  0  0  0  0  0  0
   21.8549   19.3601   22.0482 H   0  0  0  0  0  0  0  0  0  0  0  0
   21.0389   18.9726   23.5757 H   0  0  0  0  0  0  0  0  0  0  0  0
   20.0208   18.2282   21.8148 C   0  0  0  0  0  0  0  0  0  0  0  0
   20.3020   17.7318   20.8765 H   0  0  0  0  0  0  0  0  0  0  0  0
   19.4391   17.4960   22.3904 H   0  0  0  0  0  0  0  0  0  0  0  0
   19.1294   19.4497   21.4754 C   0  0  0  0  0  0  0  0  0  0  0  0
   18.3004   19.0894   20.8504 H   0  0  0  0  0  0  0  0  0  0  0  0
   19.6848   20.1618   20.8495 H   0  0  0  0  0  0  0  0  0  0  0  0
   18.5222   20.1765   22.7035 C   0  0  0  0  0  0  0  0  0  0  0  0
   17.5746   20.6406   22.3957 H   0  0  0  0  0  0  0  0  0  0  0  0
   18.2619   19.4503   23.4862 H   0  0  0  0  0  0  0  0  0  0  0  0
   19.4266   21.2894   23.2837 C   0  0  0  0  0  0  0  0  0  0  0  0
   20.3594   20.8933   23.6982 H   0  0  0  0  0  0  0  0  0  0  0  0
   19.6826   22.0296   22.5146 H   0  0  0  0  0  0  0  0  0  0  0  0
   18.9080   21.8188   24.0935 H   0  0  0  0  0  0  0  0  0  0  0  0
  1  2  1  0  0  0  0
  1  3  1  0  0  0  0
  1  4  1  0  0  0  0
  1  5  1  0  0  0  0
  5  6  1  0  0  0  0
  5  7  1  0  0  0  0
  5  8  1  0  0  0  0
  8  9  1  0  0  0  0
  8 10  1  0  0  0  0
  8 11  1  0  0  0  0
 11 12  1  0  0  0  0
 11 13  1  0  0  0  0
 11 14  1  0  0  0  0
 14 15  1  0  0  0  0
 14 16  1  0  0  0  0
 14 17  1  0  0  0  0
 17 18  1  0  0  0  0
 17 19  1  0  0  0  0
 17 20  1  0  0  0  0
M  END
> <VConfSearch Rank>
72

> <Conf_Id>
61

> <Delta U+W>
2.669

> <U+W>
-9.108

> <U>
48.916

> <W>
-58.025

> <W(PB)>
-59.935

> <W(SA)>
1.911

> <Valence>
3.785

> <Coulomb>
44.716

> <VdW>
0.415

> <VdW6>
-4.836

> <VdW12>
5.251

> <Bond>
0.175

> <Angle>
1.195

> <Pdih>
2.415

> <Idih>
0.000

> <Tether>
0.000

$$$$
VeraChem MOL file


 20 19  0  0  0  0  0  0  0  0999 V2000     
   19.2249   17.2337   21.3544 N   0  3  0  0  0  0  0  0  0  0  0  0
   18.3984   16.6309   21.2817 H   0  0  0  0  0  0  0  0  0  0  0  0
   19.9466   16.8207   20.7554 H   0  0  0  0  0  0  0  0  0  0  0  0
   19.5598   17.1693   22.3192 H   0  0  0  0  0  0  0  0  0  0  0  0
   18.9139   18.6638   20.9563 C   0  0  0  0  0  0  0  0  0  0  0  0
   18.1009   19.0326   21.5875 H   0  0  0  0  0  0  0  0  0  0  0  0
   18.5539   18.6354   19.9242 H   0  0  0  0  0  0  0  0  0  0  0  0
   20.1190   19.6240   21.0399 C   0  0  0  0  0  0  0  0  0  0  0  0
   21.0175   19.1364   20.6388 H   0  0  0  0  0  0  0  0  0  0  0  0
   19.9155   20.4734   20.3743 H   0  0  0  0  0  0  0  0  0  0  0  0
   20.3971   20.1879   22.4571 C   0  0  0  0  0  0  0  0  0  0  0  0
   19.5079   20.7225   22.8193 H   0  0  0  0  0  0  0  0  0  0  0  0
   21.1934   20.9407   22.3751 H   0  0  0  0  0  0  0  0  0  0  0  0
   20.8200   19.1255   23.4986 C   0  0  0  0  0  0  0  0  0  0  0  0
   19.9816   18.4494   23.7078 H   0  0  0  0  0  0  0  0  0  0  0  0
   21.6412   18.5150   23.0975 H   0  0  0  0  0  0  0  0  0  0  0  0
   21.2689   19.7764   24.8244 C   0  0  0  0  0  0  0  0  0  0  0  0
   21.5562   19.0094   25.5553 H   0  0  0  0  0  0  0  0  0  0  0  0
   22.1345   20.4336   24.6694 H   0  0  0  0  0  0  0  0  0  0  0  0
   20.4602   20.3745   25.2643 H   0  0  0  0  0  0  0  0  0  0  0  0
  1  2  1  0  0  0  0
  1  3  1  0  0  0  0
  1  4  1  0  0  0  0
  1  5  1  0  0  0  0
  5  6  1  0  0  0  0
  5  7  1  0  0  0  0
  5  8  1  0  0  0  0
  8  9  1  0  0  0  0
  8 10  1  0  0  0  0
  8 11  1  0  0  0  0
 11 12  1  0  0  0  0
 11 13  1  0  0  0  0
 11 14  1  0  0  0  0
 14 15  1  0  0  0  0
 14 16  1  0  0  0  0
 14 17  1  0  0  0  0
 17 18  1  0  0  0  0
 17 19  1  0  0  0  0
 17 20  1  0  0  0  0
M  END
> <VConfSearch Rank>
73

> <Conf_Id>
69

> <Delta U+W>
2.811

> <U+W>
-8.967

> <U>
49.216

> <W>
-58.183

> <W(PB)>
-60.064

> <W(SA)>
1.881

> <Valence>
2.929

> <Coulomb>
46.006

> <VdW>
0.281

> <VdW6>
-4.909

> <VdW12>
5.190

> <Bond>
0.156

> <Angle>
0.974

> <Pdih>
1.799

> <Idih>
0.000

> <Tether>
0.000

$$$$
VeraChem MOL file


 20 19  0  0  0  0  0  0  0  0999 V2000     
   21.5377   17.9299   23.6929 N   0  3  0  0  0  0  0  0  0  0  0  0
   21.6947   18.9266   23.5225 H   0  0  0  0  0  0  0  0  0  0  0  0
   21.1460   17.8421   24.6358 H   0  0  0  0  0  0  0  0  0  0  0  0
   22.4585   17.4787   23.7109 H   0  0  0  0  0  0  0  0  0  0  0  0
   20.6298   17.3118   22.6468 C   0  0  0  0  0  0  0  0  0  0  0  0
   20.5291   16.2527   22.8990 H   0  0  0  0  0  0  0  0  0  0  0  0
   21.1216   17.3818   21.6729 H   0  0  0  0  0  0  0  0  0  0  0  0
   19.2241   17.9441   22.5706 C   0  0  0  0  0  0  0  0  0  0  0  0
   18.5502   17.2053   22.1171 H   0  0  0  0  0  0  0  0  0  0  0  0
   18.8365   18.1234   23.5823 H   0  0  0  0  0  0  0  0  0  0  0  0
   19.1454   19.2406   21.7241 C   0  0  0  0  0  0  0  0  0  0  0  0
   18.0891   19.5330   21.6445 H   0  0  0  0  0  0  0  0  0  0  0  0
   19.4816   19.0298   20.6994 H   0  0  0  0  0  0  0  0  0  0  0  0
   19.9509   20.4305   22.2966 C   0  0  0  0  0  0  0  0  0  0  0  0
   19.6970   20.5788   23.3556 H   0  0  0  0  0  0  0  0  0  0  0  0
   21.0258   20.2167   22.2446 H   0  0  0  0  0  0  0  0  0  0  0  0
   19.6709   21.7336   21.5177 C   0  0  0  0  0  0  0  0  0  0  0  0
   18.6098   22.0091   21.5758 H   0  0  0  0  0  0  0  0  0  0  0  0
   20.2569   22.5653   21.9299 H   0  0  0  0  0  0  0  0  0  0  0  0
   19.9385   21.6257   20.4585 H   0  0  0  0  0  0  0  0  0  0  0  0
  1  2  1  0  0  0  0
  1  3  1  0  0  0  0
  1  4  1  0  0  0  0
  1  5  1  0  0  0  0
  5  6  1  0  0  0  0
  5  7  1  0  0  0  0
  5  8  1  0  0  0  0
  8  9  1  0  0  0  0
  8 10  1  0  0  0  0
  8 11  1  0  0  0  0
 11 12  1  0  0  0  0
 11 13  1  0  0  0  0
 11 14  1  0  0  0  0
 14 15  1  0  0  0  0
 14 16  1  0  0  0  0
 14 17  1  0  0  0  0
 17 18  1  0  0  0  0
 17 19  1  0  0  0  0
 17 20  1  0  0  0  0
M  END
> <VConfSearch Rank>
74

> <Conf_Id>
26

> <Delta U+W>
2.809

> <U+W>
-8.969

> <U>
49.216

> <W>
-58.185

> <W(PB)>
-60.088

> <W(SA)>
1.903

> <Valence>
2.929

> <Coulomb>
46.006

> <VdW>
0.281

> <VdW6>
-4.909

> <VdW12>
5.190

> <Bond>
0.156

> <Angle>
0.974

> <Pdih>
1.799

> <Idih>
0.000

> <Tether>
0.000

$$$$
VeraChem MOL file


 20 19  0  0  0  0  0  0  0  0999 V2000     
   20.9424   20.8359   20.9034 N   0  3  0  0  0  0  0  0  0  0  0  0
   21.5091   20.9174   21.7525 H   0  0  0  0  0  0  0  0  0  0  0  0
   21.5630   20.5123   20.1550 H   0  0  0  0  0  0  0  0  0  0  0  0
   20.6398   21.7827   20.6517 H   0  0  0  0  0  0  0  0  0  0  0  0
   19.7646   19.9019   21.1024 C   0  0  0  0  0  0  0  0  0  0  0  0
   19.1903   19.8873   20.1721 H   0  0  0  0  0  0  0  0  0  0  0  0
   19.1284   20.3195   21.8870 H   0  0  0  0  0  0  0  0  0  0  0  0
   20.1719   18.4618   21.4749 C   0  0  0  0  0  0  0  0  0  0  0  0
   19.2688   17.8402   21.5238 H   0  0  0  0  0  0  0  0  0  0  0  0
   20.7820   18.0402   20.6652 H   0  0  0  0  0  0  0  0  0  0  0  0
   20.9520   18.3530   22.8115 C   0  0  0  0  0  0  0  0  0  0  0  0
   21.9300   18.8405   22.7024 H   0  0  0  0  0  0  0  0  0  0  0  0
   21.1687   17.2941   23.0091 H   0  0  0  0  0  0  0  0  0  0  0  0
   20.2244   18.9566   24.0401 C   0  0  0  0  0  0  0  0  0  0  0  0
   20.8720   18.8449   24.9210 H   0  0  0  0  0  0  0  0  0  0  0  0
   20.0830   20.0375   23.9052 H   0  0  0  0  0  0  0  0  0  0  0  0
   18.8626   18.2880   24.3357 C   0  0  0  0  0  0  0  0  0  0  0  0
   18.9740   17.2029   24.4584 H   0  0  0  0  0  0  0  0  0  0  0  0
   18.4310   18.6879   25.2623 H   0  0  0  0  0  0  0  0  0  0  0  0
   18.1409   18.4708   23.5299 H   0  0  0  0  0  0  0  0  0  0  0  0
  1  2  1  0  0  0  0
  1  3  1  0  0  0  0
  1  4  1  0  0  0  0
  1  5  1  0  0  0  0
  5  6  1  0  0  0  0
  5  7  1  0  0  0  0
  5  8  1  0  0  0  0
  8  9  1  0  0  0  0
  8 10  1  0  0  0  0
  8 11  1  0  0  0  0
 11 12  1  0  0  0  0
 11 13  1  0  0  0  0
 11 14  1  0  0  0  0
 14 15  1  0  0  0  0
 14 16  1  0  0  0  0
 14 17  1  0  0  0  0
 17 18  1  0  0  0  0
 17 19  1  0  0  0  0
 17 20  1  0  0  0  0
M  END
> <VConfSearch Rank>
75

> <Conf_Id>
2

> <Delta U+W>
0.994

> <U+W>
-10.784

> <U>
47.562

> <W>
-58.346

> <W(PB)>
-60.221

> <W(SA)>
1.875

> <Valence>
2.149

> <Coulomb>
45.034

> <VdW>
0.378

> <VdW6>
-5.599

> <VdW12>
5.977

> <Bond>
0.185

> <Angle>
0.935

> <Pdih>
1.028

> <Idih>
0.000

> <Tether>
0.000

$$$$
VeraChem MOL file


 20 19  0  0  0  0  0  0  0  0999 V2000     
   21.0058   20.5567   20.7351 N   0  3  0  0  0  0  0  0  0  0  0  0
   20.4428   21.3836   20.5128 H   0  0  0  0  0  0  0  0  0  0  0  0
   21.5296   20.7680   21.5894 H   0  0  0  0  0  0  0  0  0  0  0  0
   21.6916   20.4510   19.9802 H   0  0  0  0  0  0  0  0  0  0  0  0
   20.1477   19.3169   20.8950 C   0  0  0  0  0  0  0  0  0  0  0  0
   20.8086   18.4699   21.0969 H   0  0  0  0  0  0  0  0  0  0  0  0
   19.6447   19.1347   19.9415 H   0  0  0  0  0  0  0  0  0  0  0  0
   19.0943   19.4327   22.0154 C   0  0  0  0  0  0  0  0  0  0  0  0
   18.4155   20.2647   21.7856 H   0  0  0  0  0  0  0  0  0  0  0  0
   18.4719   18.5288   22.0106 H   0  0  0  0  0  0  0  0  0  0  0  0
   19.6978   19.6419   23.4292 C   0  0  0  0  0  0  0  0  0  0  0  0
   18.8792   19.6791   24.1611 H   0  0  0  0  0  0  0  0  0  0  0  0
   20.1821   20.6265   23.4756 H   0  0  0  0  0  0  0  0  0  0  0  0
   20.7175   18.5597   23.8676 C   0  0  0  0  0  0  0  0  0  0  0  0
   21.5926   18.5704   23.2039 H   0  0  0  0  0  0  0  0  0  0  0  0
   21.0942   18.8174   24.8674 H   0  0  0  0  0  0  0  0  0  0  0  0
   20.1184   17.1357   23.9134 C   0  0  0  0  0  0  0  0  0  0  0  0
   19.8309   16.7874   22.9136 H   0  0  0  0  0  0  0  0  0  0  0  0
   20.8512   16.4229   24.3131 H   0  0  0  0  0  0  0  0  0  0  0  0
   19.2308   17.1013   24.5583 H   0  0  0  0  0  0  0  0  0  0  0  0
  1  2  1  0  0  0  0
  1  3  1  0  0  0  0
  1  4  1  0  0  0  0
  1  5  1  0  0  0  0
  5  6  1  0  0  0  0
  5  7  1  0  0  0  0
  5  8  1  0  0  0  0
  8  9  1  0  0  0  0
  8 10  1  0  0  0  0
  8 11  1  0  0  0  0
 11 12  1  0  0  0  0
 11 13  1  0  0  0  0
 11 14  1  0  0  0  0
 14 15  1  0  0  0  0
 14 16  1  0  0  0  0
 14 17  1  0  0  0  0
 17 18  1  0  0  0  0
 17 19  1  0  0  0  0
 17 20  1  0  0  0  0
M  END
> <VConfSearch Rank>
76

> <Conf_Id>
1

> <Delta U+W>
1.032

> <U+W>
-10.746

> <U>
47.562

> <W>
-58.308

> <W(PB)>
-60.184

> <W(SA)>
1.877

> <Valence>
2.149

> <Coulomb>
45.035

> <VdW>
0.378

> <VdW6>
-5.599

> <VdW12>
5.978

> <Bond>
0.185

> <Angle>
0.935

> <Pdih>
1.028

> <Idih>
0.000

> <Tether>
0.000

$$$$
VeraChem MOL file


 20 19  0  0  0  0  0  0  0  0999 V2000     
   18.6594   20.2201   21.1639 N   0  3  0  0  0  0  0  0  0  0  0  0
   17.6899   20.2719   21.4916 H   0  0  0  0  0  0  0  0  0  0  0  0
   19.1918   20.9262   21.6803 H   0  0  0  0  0  0  0  0  0  0  0  0
   18.6571   20.5076   20.1797 H   0  0  0  0  0  0  0  0  0  0  0  0
   19.2425   18.8318   21.3434 C   0  0  0  0  0  0  0  0  0  0  0  0
   20.2593   18.8405   20.9478 H   0  0  0  0  0  0  0  0  0  0  0  0
   18.6501   18.1453   20.7325 H   0  0  0  0  0  0  0  0  0  0  0  0
   19.2392   18.3384   22.8061 C   0  0  0  0  0  0  0  0  0  0  0  0
   18.2027   18.3541   23.1683 H   0  0  0  0  0  0  0  0  0  0  0  0
   19.5516   17.2862   22.8356 H   0  0  0  0  0  0  0  0  0  0  0  0
   20.1221   19.1708   23.7746 C   0  0  0  0  0  0  0  0  0  0  0  0
   19.7371   19.0217   24.7929 H   0  0  0  0  0  0  0  0  0  0  0  0
   20.0105   20.2443   23.5746 H   0  0  0  0  0  0  0  0  0  0  0  0
   21.6244   18.7878   23.7870 C   0  0  0  0  0  0  0  0  0  0  0  0
   22.1231   19.3757   24.5704 H   0  0  0  0  0  0  0  0  0  0  0  0
   21.7361   17.7350   24.0818 H   0  0  0  0  0  0  0  0  0  0  0  0
   22.3606   19.0277   22.4504 C   0  0  0  0  0  0  0  0  0  0  0  0
   22.1747   20.0398   22.0685 H   0  0  0  0  0  0  0  0  0  0  0  0
   23.4440   18.9145   22.5856 H   0  0  0  0  0  0  0  0  0  0  0  0
   22.0530   18.3014   21.6889 H   0  0  0  0  0  0  0  0  0  0  0  0
  1  2  1  0  0  0  0
  1  3  1  0  0  0  0
  1  4  1  0  0  0  0
  1  5  1  0  0  0  0
  5  6  1  0  0  0  0
  5  7  1  0  0  0  0
  5  8  1  0  0  0  0
  8  9  1  0  0  0  0
  8 10  1  0  0  0  0
  8 11  1  0  0  0  0
 11 12  1  0  0  0  0
 11 13  1  0  0  0  0
 11 14  1  0  0  0  0
 14 15  1  0  0  0  0
 14 16  1  0  0  0  0
 14 17  1  0  0  0  0
 17 18  1  0  0  0  0
 17 19  1  0  0  0  0
 17 20  1  0  0  0  0
M  END
> <VConfSearch Rank>
77

> <Conf_Id>
80

> <Delta U+W>
2.920

> <U+W>
-8.857

> <U>
49.434

> <W>
-58.292

> <W(PB)>
-60.170

> <W(SA)>
1.879

> <Valence>
3.798

> <Coulomb>
45.253

> <VdW>
0.384

> <VdW6>
-5.595

> <VdW12>
5.979

> <Bond>
0.198

> <Angle>
1.368

> <Pdih>
2.231

> <Idih>
0.000

> <Tether>
0.000

$$$$
VeraChem MOL file


 20 19  0  0  0  0  0  0  0  0999 V2000     
   19.3821   17.6316   20.9615 N   0  3  0  0  0  0  0  0  0  0  0  0
   19.7761   16.6856   20.9682 H   0  0  0  0  0  0  0  0  0  0  0  0
   18.5334   17.5969   20.3872 H   0  0  0  0  0  0  0  0  0  0  0  0
   20.0499   18.2343   20.4719 H   0  0  0  0  0  0  0  0  0  0  0  0
   19.0932   18.1327   22.3633 C   0  0  0  0  0  0  0  0  0  0  0  0
   18.3456   17.4666   22.8025 H   0  0  0  0  0  0  0  0  0  0  0  0
   18.6497   19.1262   22.2804 H   0  0  0  0  0  0  0  0  0  0  0  0
   20.3350   18.1732   23.2794 C   0  0  0  0  0  0  0  0  0  0  0  0
   20.0236   18.4186   24.3033 H   0  0  0  0  0  0  0  0  0  0  0  0
   20.7552   17.1599   23.3281 H   0  0  0  0  0  0  0  0  0  0  0  0
   21.4468   19.1563   22.8237 C   0  0  0  0  0  0  0  0  0  0  0  0
   21.5890   19.1034   21.7366 H   0  0  0  0  0  0  0  0  0  0  0  0
   22.3963   18.8157   23.2595 H   0  0  0  0  0  0  0  0  0  0  0  0
   21.2397   20.6298   23.2596 C   0  0  0  0  0  0  0  0  0  0  0  0
   21.1939   20.6890   24.3561 H   0  0  0  0  0  0  0  0  0  0  0  0
   22.1279   21.2048   22.9626 H   0  0  0  0  0  0  0  0  0  0  0  0
   19.9910   21.3097   22.6560 C   0  0  0  0  0  0  0  0  0  0  0  0
   19.0685   20.9176   23.1001 H   0  0  0  0  0  0  0  0  0  0  0  0
   20.0110   22.3893   22.8538 H   0  0  0  0  0  0  0  0  0  0  0  0
   19.9467   21.1693   21.5683 H   0  0  0  0  0  0  0  0  0  0  0  0
  1  2  1  0  0  0  0
  1  3  1  0  0  0  0
  1  4  1  0  0  0  0
  1  5  1  0  0  0  0
  5  6  1  0  0  0  0
  5  7  1  0  0  0  0
  5  8  1  0  0  0  0
  8  9  1  0  0  0  0
  8 10  1  0  0  0  0
  8 11  1  0  0  0  0
 11 12  1  0  0  0  0
 11 13  1  0  0  0  0
 11 14  1  0  0  0  0
 14 15  1  0  0  0  0
 14 16  1  0  0  0  0
 14 17  1  0  0  0  0
 17 18  1  0  0  0  0
 17 19  1  0  0  0  0
 17 20  1  0  0  0  0
M  END
> <VConfSearch Rank>
78

> <Conf_Id>
65

> <Delta U+W>
2.949

> <U+W>
-8.829

> <U>
49.435

> <W>
-58.263

> <W(PB)>
-60.125

> <W(SA)>
1.862

> <Valence>
3.797

> <Coulomb>
45.253

> <VdW>
0.384

> <VdW6>
-5.596

> <VdW12>
5.980

> <Bond>
0.198

> <Angle>
1.369

> <Pdih>
2.230

> <Idih>
0.000

> <Tether>
0.000

$$$$
VeraChem MOL file


 20 19  0  0  0  0  0  0  0  0999 V2000     
   21.4772   18.2797   21.3945 N   0  3  0  0  0  0  0  0  0  0  0  0
   22.3968   18.4782   20.9862 H   0  0  0  0  0  0  0  0  0  0  0  0
   21.5615   18.3953   22.4090 H   0  0  0  0  0  0  0  0  0  0  0  0
   21.2790   17.2902   21.2156 H   0  0  0  0  0  0  0  0  0  0  0  0
   20.4003   19.1814   20.8228 C   0  0  0  0  0  0  0  0  0  0  0  0
   20.3705   18.9997   19.7450 H   0  0  0  0  0  0  0  0  0  0  0  0
   20.6930   20.2225   20.9831 H   0  0  0  0  0  0  0  0  0  0  0  0
   18.9974   18.9346   21.4139 C   0  0  0  0  0  0  0  0  0  0  0  0
   18.2601   19.2988   20.6863 H   0  0  0  0  0  0  0  0  0  0  0  0
   18.8175   17.8553   21.5060 H   0  0  0  0  0  0  0  0  0  0  0  0
   18.7162   19.6416   22.7670 C   0  0  0  0  0  0  0  0  0  0  0  0
   17.6737   19.4260   23.0395 H   0  0  0  0  0  0  0  0  0  0  0  0
   18.7656   20.7317   22.6373 H   0  0  0  0  0  0  0  0  0  0  0  0
   19.6206   19.2050   23.9477 C   0  0  0  0  0  0  0  0  0  0  0  0
   19.0208   19.2113   24.8688 H   0  0  0  0  0  0  0  0  0  0  0  0
   19.9485   18.1651   23.8165 H   0  0  0  0  0  0  0  0  0  0  0  0
   20.8309   20.1439   24.1656 C   0  0  0  0  0  0  0  0  0  0  0  0
   21.4463   20.2506   23.2659 H   0  0  0  0  0  0  0  0  0  0  0  0
   20.4933   21.1481   24.4537 H   0  0  0  0  0  0  0  0  0  0  0  0
   21.4724   19.7672   24.9729 H   0  0  0  0  0  0  0  0  0  0  0  0
  1  2  1  0  0  0  0
  1  3  1  0  0  0  0
  1  4  1  0  0  0  0
  1  5  1  0  0  0  0
  5  6  1  0  0  0  0
  5  7  1  0  0  0  0
  5  8  1  0  0  0  0
  8  9  1  0  0  0  0
  8 10  1  0  0  0  0
  8 11  1  0  0  0  0
 11 12  1  0  0  0  0
 11 13  1  0  0  0  0
 11 14  1  0  0  0  0
 14 15  1  0  0  0  0
 14 16  1  0  0  0  0
 14 17  1  0  0  0  0
 17 18  1  0  0  0  0
 17 19  1  0  0  0  0
 17 20  1  0  0  0  0
M  END
> <VConfSearch Rank>
79

> <Conf_Id>
77

> <Delta U+W>
5.366

> <U+W>
-6.412

> <U>
51.542

> <W>
-57.954

> <W(PB)>
-59.811

> <W(SA)>
1.857

> <Valence>
5.347

> <Coulomb>
45.870

> <VdW>
0.325

> <VdW6>
-6.161

> <VdW12>
6.486

> <Bond>
0.201

> <Angle>
1.484

> <Pdih>
3.662

> <Idih>
0.000

> <Tether>
0.000

$$$$
VeraChem MOL file


 20 19  0  0  0  0  0  0  0  0999 V2000     
   18.7679   17.8188   21.8570 N   0  3  0  0  0  0  0  0  0  0  0  0
   18.6514   16.9699   22.4193 H   0  0  0  0  0  0  0  0  0  0  0  0
   18.5827   18.6185   22.4700 H   0  0  0  0  0  0  0  0  0  0  0  0
   18.0338   17.8053   21.1411 H   0  0  0  0  0  0  0  0  0  0  0  0
   20.1522   17.9013   21.2433 C   0  0  0  0  0  0  0  0  0  0  0  0
   20.2003   18.7870   20.6042 H   0  0  0  0  0  0  0  0  0  0  0  0
   20.2737   17.0187   20.6094 H   0  0  0  0  0  0  0  0  0  0  0  0
   21.2951   17.9391   22.2780 C   0  0  0  0  0  0  0  0  0  0  0  0
   21.0932   17.2183   23.0815 H   0  0  0  0  0  0  0  0  0  0  0  0
   22.2072   17.5833   21.7807 H   0  0  0  0  0  0  0  0  0  0  0  0
   21.5982   19.3384   22.8778 C   0  0  0  0  0  0  0  0  0  0  0  0
   21.9310   20.0219   22.0843 H   0  0  0  0  0  0  0  0  0  0  0  0
   22.4606   19.2277   23.5497 H   0  0  0  0  0  0  0  0  0  0  0  0
   20.4417   19.9826   23.6841 C   0  0  0  0  0  0  0  0  0  0  0  0
   19.8107   19.2066   24.1379 H   0  0  0  0  0  0  0  0  0  0  0  0
   20.8720   20.5430   24.5262 H   0  0  0  0  0  0  0  0  0  0  0  0
   19.5918   20.9674   22.8464 C   0  0  0  0  0  0  0  0  0  0  0  0
   18.7537   21.3563   23.4393 H   0  0  0  0  0  0  0  0  0  0  0  0
   20.1976   21.8261   22.5286 H   0  0  0  0  0  0  0  0  0  0  0  0
   19.1811   20.5038   21.9431 H   0  0  0  0  0  0  0  0  0  0  0  0
  1  2  1  0  0  0  0
  1  3  1  0  0  0  0
  1  4  1  0  0  0  0
  1  5  1  0  0  0  0
  5  6  1  0  0  0  0
  5  7  1  0  0  0  0
  5  8  1  0  0  0  0
  8  9  1  0  0  0  0
  8 10  1  0  0  0  0
  8 11  1  0  0  0  0
 11 12  1  0  0  0  0
 11 13  1  0  0  0  0
 11 14  1  0  0  0  0
 14 15  1  0  0  0  0
 14 16  1  0  0  0  0
 14 17  1  0  0  0  0
 17 18  1  0  0  0  0
 17 19  1  0  0  0  0
 17 20  1  0  0  0  0
M  END
> <VConfSearch Rank>
80

> <Conf_Id>
67

> <Delta U+W>
5.353

> <U+W>
-6.425

> <U>
51.541

> <W>
-57.966

> <W(PB)>
-59.821

> <W(SA)>
1.855

> <Valence>
5.347

> <Coulomb>
45.870

> <VdW>
0.325

> <VdW6>
-6.161

> <VdW12>
6.486

> <Bond>
0.201

> <Angle>
1.485

> <Pdih>
3.662

> <Idih>
0.000

> <Tether>
0.000

$$$$
VeraChem MOL file


 20 19  0  0  0  0  0  0  0  0999 V2000     
   21.5657   16.9753   20.5408 N   0  3  0  0  0  0  0  0  0  0  0  0
   20.7482   16.3829   20.3643 H   0  0  0  0  0  0  0  0  0  0  0  0
   22.1176   16.9853   19.6765 H   0  0  0  0  0  0  0  0  0  0  0  0
   22.1336   16.5014   21.2502 H   0  0  0  0  0  0  0  0  0  0  0  0
   21.1700   18.3730   20.9725 C   0  0  0  0  0  0  0  0  0  0  0  0
   20.5959   18.8273   20.1603 H   0  0  0  0  0  0  0  0  0  0  0  0
   22.0852   18.9546   21.1129 H   0  0  0  0  0  0  0  0  0  0  0  0
   20.3394   18.3935   22.2682 C   0  0  0  0  0  0  0  0  0  0  0  0
   19.4293   17.7952   22.1278 H   0  0  0  0  0  0  0  0  0  0  0  0
   20.9134   17.9221   23.0771 H   0  0  0  0  0  0  0  0  0  0  0  0
   19.9574   19.8348   22.6728 C   0  0  0  0  0  0  0  0  0  0  0  0
   19.3878   20.3052   21.8591 H   0  0  0  0  0  0  0  0  0  0  0  0
   20.8701   20.4319   22.8074 H   0  0  0  0  0  0  0  0  0  0  0  0
   19.1229   19.8677   23.9728 C   0  0  0  0  0  0  0  0  0  0  0  0
   18.2078   19.2732   23.8418 H   0  0  0  0  0  0  0  0  0  0  0  0
   19.6899   19.4000   24.7900 H   0  0  0  0  0  0  0  0  0  0  0  0
   18.7434   21.3095   24.3731 C   0  0  0  0  0  0  0  0  0  0  0  0
   18.1455   21.7927   23.5893 H   0  0  0  0  0  0  0  0  0  0  0  0
   18.1516   21.3122   25.2976 H   0  0  0  0  0  0  0  0  0  0  0  0
   19.6392   21.9204   24.5450 H   0  0  0  0  0  0  0  0  0  0  0  0
  1  2  1  0  0  0  0
  1  3  1  0  0  0  0
  1  4  1  0  0  0  0
  1  5  1  0  0  0  0
  5  6  1  0  0  0  0
  5  7  1  0  0  0  0
  5  8  1  0  0  0  0
  8  9  1  0  0  0  0
  8 10  1  0  0  0  0
  8 11  1  0  0  0  0
 11 12  1  0  0  0  0
 11 13  1  0  0  0  0
 11 14  1  0  0  0  0
 14 15  1  0  0  0  0
 14 16  1  0  0  0  0
 14 17  1  0  0  0  0
 17 18  1  0  0  0  0
 17 19  1  0  0  0  0
 17 20  1  0  0  0  0
M  END
> <VConfSearch Rank>
81

> <Conf_Id>
72

> <Delta U+W>
0.000

> <U+W>
-11.778

> <U>
45.772

> <W>
-57.550

> <W(PB)>
-59.511

> <W(SA)>
1.961

> <Valence>
1.299

> <Coulomb>
44.177

> <VdW>
0.297

> <VdW6>
-3.490

> <VdW12>
3.786

> <Bond>
0.096

> <Angle>
0.381

> <Pdih>
0.822

> <Idih>
0.000

> <Tether>
0.000

$$$$
VeraChem MOL file


 20 19  0  0  0  0  0  0  0  0999 V2000     
   20.1571   20.7932   25.0153 N   0  3  0  0  0  0  0  0  0  0  0  0
   20.8330   21.4488   24.6109 H   0  0  0  0  0  0  0  0  0  0  0  0
   19.2304   21.2213   24.9242 H   0  0  0  0  0  0  0  0  0  0  0  0
   20.3612   20.7371   26.0187 H   0  0  0  0  0  0  0  0  0  0  0  0
   20.2203   19.4325   24.3511 C   0  0  0  0  0  0  0  0  0  0  0  0
   19.4990   18.7797   24.8501 H   0  0  0  0  0  0  0  0  0  0  0  0
   21.2217   19.0242   24.5125 H   0  0  0  0  0  0  0  0  0  0  0  0
   19.9180   19.4807   22.8426 C   0  0  0  0  0  0  0  0  0  0  0  0
   18.9181   19.9060   22.6844 H   0  0  0  0  0  0  0  0  0  0  0  0
   20.6363   20.1520   22.3552 H   0  0  0  0  0  0  0  0  0  0  0  0
   19.9912   18.0720   22.2075 C   0  0  0  0  0  0  0  0  0  0  0  0
   19.3220   17.3962   22.7580 H   0  0  0  0  0  0  0  0  0  0  0  0
   21.0053   17.6652   22.3252 H   0  0  0  0  0  0  0  0  0  0  0  0
   19.5941   18.0473   20.7114 C   0  0  0  0  0  0  0  0  0  0  0  0
   19.5717   17.0030   20.3697 H   0  0  0  0  0  0  0  0  0  0  0  0
   18.5712   18.4312   20.5917 H   0  0  0  0  0  0  0  0  0  0  0  0
   20.5586   18.8469   19.8059 C   0  0  0  0  0  0  0  0  0  0  0  0
   21.5932   18.5010   19.9279 H   0  0  0  0  0  0  0  0  0  0  0  0
   20.2860   18.7223   18.7499 H   0  0  0  0  0  0  0  0  0  0  0  0
   20.5258   19.9203   20.0297 H   0  0  0  0  0  0  0  0  0  0  0  0
  1  2  1  0  0  0  0
  1  3  1  0  0  0  0
  1  4  1  0  0  0  0
  1  5  1  0  0  0  0
  5  6  1  0  0  0  0
  5  7  1  0  0  0  0
  5  8  1  0  0  0  0
  8  9  1  0  0  0  0
  8 10  1  0  0  0  0
  8 11  1  0  0  0  0
 11 12  1  0  0  0  0
 11 13  1  0  0  0  0
 11 14  1  0  0  0  0
 14 15  1  0  0  0  0
 14 16  1  0  0  0  0
 14 17  1  0  0  0  0
 17 18  1  0  0  0  0
 17 19  1  0  0  0  0
 17 20  1  0  0  0  0
M  END
> <VConfSearch Rank>
82

> <Conf_Id>
42

> <Delta U+W>
0.508

> <U+W>
-11.270

> <U>
46.486

> <W>
-57.756

> <W(PB)>
-59.705

> <W(SA)>
1.949

> <Valence>
1.806

> <Coulomb>
44.248

> <VdW>
0.433

> <VdW6>
-4.089

> <VdW12>
4.522

> <Bond>
0.131

> <Angle>
0.628

> <Pdih>
1.047

> <Idih>
0.000

> <Tether>
0.000

$$$$
VeraChem MOL file


 20 19  0  0  0  0  0  0  0  0999 V2000     
   20.0640   16.3471   23.7762 N   0  3  0  0  0  0  0  0  0  0  0  0
   20.5083   15.8192   23.0183 H   0  0  0  0  0  0  0  0  0  0  0  0
   20.8042   16.6095   24.4347 H   0  0  0  0  0  0  0  0  0  0  0  0
   19.4450   15.6950   24.2693 H   0  0  0  0  0  0  0  0  0  0  0  0
   19.3110   17.5561   23.2588 C   0  0  0  0  0  0  0  0  0  0  0  0
   18.8404   18.0515   24.1125 H   0  0  0  0  0  0  0  0  0  0  0  0
   18.5220   17.2014   22.5902 H   0  0  0  0  0  0  0  0  0  0  0  0
   20.2117   18.5562   22.5120 C   0  0  0  0  0  0  0  0  0  0  0  0
   21.0097   18.8916   23.1865 H   0  0  0  0  0  0  0  0  0  0  0  0
   20.6945   18.0506   21.6652 H   0  0  0  0  0  0  0  0  0  0  0  0
   19.4023   19.7712   22.0005 C   0  0  0  0  0  0  0  0  0  0  0  0
   18.9569   20.3043   22.8520 H   0  0  0  0  0  0  0  0  0  0  0  0
   18.5631   19.4103   21.3895 H   0  0  0  0  0  0  0  0  0  0  0  0
   20.2399   20.7589   21.1522 C   0  0  0  0  0  0  0  0  0  0  0  0
   20.6678   20.2349   20.2860 H   0  0  0  0  0  0  0  0  0  0  0  0
   19.5704   21.5293   20.7447 H   0  0  0  0  0  0  0  0  0  0  0  0
   21.3683   21.4512   21.9503 C   0  0  0  0  0  0  0  0  0  0  0  0
   22.1304   20.7332   22.2775 H   0  0  0  0  0  0  0  0  0  0  0  0
   21.8707   22.2048   21.3302 H   0  0  0  0  0  0  0  0  0  0  0  0
   20.9699   21.9592   22.8382 H   0  0  0  0  0  0  0  0  0  0  0  0
  1  2  1  0  0  0  0
  1  3  1  0  0  0  0
  1  4  1  0  0  0  0
  1  5  1  0  0  0  0
  5  6  1  0  0  0  0
  5  7  1  0  0  0  0
  5  8  1  0  0  0  0
  8  9  1  0  0  0  0
  8 10  1  0  0  0  0
  8 11  1  0  0  0  0
 11 12  1  0  0  0  0
 11 13  1  0  0  0  0
 11 14  1  0  0  0  0
 14 15  1  0  0  0  0
 14 16  1  0  0  0  0
 14 17  1  0  0  0  0
 17 18  1  0  0  0  0
 17 19  1  0  0  0  0
 17 20  1  0  0  0  0
M  END
> <VConfSearch Rank>
83

> <Conf_Id>
41

> <Delta U+W>
0.515

> <U+W>
-11.263

> <U>
46.486

> <W>
-57.749

> <W(PB)>
-59.685

> <W(SA)>
1.936

> <Valence>
1.806

> <Coulomb>
44.248

> <VdW>
0.433

> <VdW6>
-4.089

> <VdW12>
4.522

> <Bond>
0.131

> <Angle>
0.628

> <Pdih>
1.047

> <Idih>
0.000

> <Tether>
0.000

$$$$
VeraChem MOL file


 20 19  0  0  0  0  0  0  0  0999 V2000     
   17.7380   17.9278   23.1049 N   0  3  0  0  0  0  0  0  0  0  0  0
   17.1356   17.3981   23.7437 H   0  0  0  0  0  0  0  0  0  0  0  0
   17.5430   18.9203   23.2657 H   0  0  0  0  0  0  0  0  0  0  0  0
   17.4282   17.7085   22.1530 H   0  0  0  0  0  0  0  0  0  0  0  0
   19.2041   17.5990   23.3117 C   0  0  0  0  0  0  0  0  0  0  0  0
   19.3247   16.5219   23.1668 H   0  0  0  0  0  0  0  0  0  0  0  0
   19.4623   17.8332   24.3480 H   0  0  0  0  0  0  0  0  0  0  0  0
   20.1535   18.3506   22.3580 C   0  0  0  0  0  0  0  0  0  0  0  0
   21.1662   17.9564   22.5086 H   0  0  0  0  0  0  0  0  0  0  0  0
   19.8807   18.1271   21.3181 H   0  0  0  0  0  0  0  0  0  0  0  0
   20.1475   19.8824   22.5919 C   0  0  0  0  0  0  0  0  0  0  0  0
   20.4434   20.0994   23.6277 H   0  0  0  0  0  0  0  0  0  0  0  0
   19.1253   20.2659   22.4759 H   0  0  0  0  0  0  0  0  0  0  0  0
   21.0679   20.6583   21.6183 C   0  0  0  0  0  0  0  0  0  0  0  0
   20.7672   20.4552   20.5809 H   0  0  0  0  0  0  0  0  0  0  0  0
   20.9181   21.7357   21.7756 H   0  0  0  0  0  0  0  0  0  0  0  0
   22.5687   20.3342   21.7979 C   0  0  0  0  0  0  0  0  0  0  0  0
   22.7926   19.2943   21.5301 H   0  0  0  0  0  0  0  0  0  0  0  0
   23.1803   20.9786   21.1532 H   0  0  0  0  0  0  0  0  0  0  0  0
   22.8873   20.4992   22.8353 H   0  0  0  0  0  0  0  0  0  0  0  0
  1  2  1  0  0  0  0
  1  3  1  0  0  0  0
  1  4  1  0  0  0  0
  1  5  1  0  0  0  0
  5  6  1  0  0  0  0
  5  7  1  0  0  0  0
  5  8  1  0  0  0  0
  8  9  1  0  0  0  0
  8 10  1  0  0  0  0
  8 11  1  0  0  0  0
 11 12  1  0  0  0  0
 11 13  1  0  0  0  0
 11 14  1  0  0  0  0
 14 15  1  0  0  0  0
 14 16  1  0  0  0  0
 14 17  1  0  0  0  0
 17 18  1  0  0  0  0
 17 19  1  0  0  0  0
 17 20  1  0  0  0  0
M  END
> <VConfSearch Rank>
84

> <Conf_Id>
33

> <Delta U+W>
0.703

> <U+W>
-11.075

> <U>
47.080

> <W>
-58.154

> <W(PB)>
-60.053

> <W(SA)>
1.899

> <Valence>
1.943

> <Coulomb>
44.572

> <VdW>
0.565

> <VdW6>
-4.575

> <VdW12>
5.139

> <Bond>
0.158

> <Angle>
0.700

> <Pdih>
1.085

> <Idih>
0.000

> <Tether>
0.000

$$$$
VeraChem MOL file


 20 19  0  0  0  0  0  0  0  0999 V2000     
   20.8884   18.8557   19.8116 N   0  3  0  0  0  0  0  0  0  0  0  0
   20.7078   18.5446   18.8514 H   0  0  0  0  0  0  0  0  0  0  0  0
   21.5000   19.6756   19.7488 H   0  0  0  0  0  0  0  0  0  0  0  0
   21.4242   18.1128   20.2698 H   0  0  0  0  0  0  0  0  0  0  0  0
   19.6027   19.1656   20.5539 C   0  0  0  0  0  0  0  0  0  0  0  0
   18.9895   18.2604   20.5645 H   0  0  0  0  0  0  0  0  0  0  0  0
   19.0686   19.9310   19.9844 H   0  0  0  0  0  0  0  0  0  0  0  0
   19.8186   19.6626   21.9969 C   0  0  0  0  0  0  0  0  0  0  0  0
   20.4490   20.5615   21.9844 H   0  0  0  0  0  0  0  0  0  0  0  0
   18.8445   19.9678   22.3990 H   0  0  0  0  0  0  0  0  0  0  0  0
   20.4488   18.5838   22.9135 C   0  0  0  0  0  0  0  0  0  0  0  0
   21.4060   18.2558   22.4873 H   0  0  0  0  0  0  0  0  0  0  0  0
   19.8014   17.6962   22.9391 H   0  0  0  0  0  0  0  0  0  0  0  0
   20.7070   19.0767   24.3583 C   0  0  0  0  0  0  0  0  0  0  0  0
   21.2549   18.2957   24.9040 H   0  0  0  0  0  0  0  0  0  0  0  0
   21.3653   19.9565   24.3390 H   0  0  0  0  0  0  0  0  0  0  0  0
   19.4137   19.4116   25.1362 C   0  0  0  0  0  0  0  0  0  0  0  0
   18.7243   18.5574   25.1431 H   0  0  0  0  0  0  0  0  0  0  0  0
   19.6471   19.6621   26.1791 H   0  0  0  0  0  0  0  0  0  0  0  0
   18.8914   20.2722   24.7006 H   0  0  0  0  0  0  0  0  0  0  0  0
  1  2  1  0  0  0  0
  1  3  1  0  0  0  0
  1  4  1  0  0  0  0
  1  5  1  0  0  0  0
  5  6  1  0  0  0  0
  5  7  1  0  0  0  0
  5  8  1  0  0  0  0
  8  9  1  0  0  0  0
  8 10  1  0  0  0  0
  8 11  1  0  0  0  0
 11 12  1  0  0  0  0
 11 13  1  0  0  0  0
 11 14  1  0  0  0  0
 14 15  1  0  0  0  0
 14 16  1  0  0  0  0
 14 17  1  0  0  0  0
 17 18  1  0  0  0  0
 17 19  1  0  0  0  0
 17 20  1  0  0  0  0
M  END
> <VConfSearch Rank>
85

> <Conf_Id>
24

> <Delta U+W>
0.847

> <U+W>
-10.931

> <U>
47.080

> <W>
-58.011

> <W(PB)>
-59.914

> <W(SA)>
1.903

> <Valence>
1.943

> <Coulomb>
44.572

> <VdW>
0.565

> <VdW6>
-4.575

> <VdW12>
5.140

> <Bond>
0.158

> <Angle>
0.700

> <Pdih>
1.085

> <Idih>
0.000

> <Tether>
0.000

$$$$
VeraChem MOL file


 20 19  0  0  0  0  0  0  0  0999 V2000     
   22.0917   19.0115   20.5758 N   0  3  0  0  0  0  0  0  0  0  0  0
   22.9016   19.6283   20.4530 H   0  0  0  0  0  0  0  0  0  0  0  0
   22.4414   18.1396   20.9854 H   0  0  0  0  0  0  0  0  0  0  0  0
   21.7453   18.7861   19.6380 H   0  0  0  0  0  0  0  0  0  0  0  0
   21.0211   19.6522   21.4359 C   0  0  0  0  0  0  0  0  0  0  0  0
   20.7169   20.5867   20.9568 H   0  0  0  0  0  0  0  0  0  0  0  0
   21.4675   19.8918   22.4046 H   0  0  0  0  0  0  0  0  0  0  0  0
   19.7894   18.7503   21.6409 C   0  0  0  0  0  0  0  0  0  0  0  0
   19.3738   18.4820   20.6606 H   0  0  0  0  0  0  0  0  0  0  0  0
   20.0951   17.8082   22.1136 H   0  0  0  0  0  0  0  0  0  0  0  0
   18.6817   19.4309   22.4835 C   0  0  0  0  0  0  0  0  0  0  0  0
   17.8325   18.7403   22.5798 H   0  0  0  0  0  0  0  0  0  0  0  0
   18.3008   20.3029   21.9339 H   0  0  0  0  0  0  0  0  0  0  0  0
   19.1266   19.8874   23.8966 C   0  0  0  0  0  0  0  0  0  0  0  0
   19.9049   20.6588   23.8188 H   0  0  0  0  0  0  0  0  0  0  0  0
   18.2733   20.3698   24.3936 H   0  0  0  0  0  0  0  0  0  0  0  0
   19.6307   18.7284   24.7864 C   0  0  0  0  0  0  0  0  0  0  0  0
   19.8440   19.0878   25.8014 H   0  0  0  0  0  0  0  0  0  0  0  0
   18.8777   17.9334   24.8634 H   0  0  0  0  0  0  0  0  0  0  0  0
   20.5553   18.2898   24.3910 H   0  0  0  0  0  0  0  0  0  0  0  0
  1  2  1  0  0  0  0
  1  3  1  0  0  0  0
  1  4  1  0  0  0  0
  1  5  1  0  0  0  0
  5  6  1  0  0  0  0
  5  7  1  0  0  0  0
  5  8  1  0  0  0  0
  8  9  1  0  0  0  0
  8 10  1  0  0  0  0
  8 11  1  0  0  0  0
 11 12  1  0  0  0  0
 11 13  1  0  0  0  0
 11 14  1  0  0  0  0
 14 15  1  0  0  0  0
 14 16  1  0  0  0  0
 14 17  1  0  0  0  0
 17 18  1  0  0  0  0
 17 19  1  0  0  0  0
 17 20  1  0  0  0  0
M  END
> <VConfSearch Rank>
86

> <Conf_Id>
64

> <Delta U+W>
0.707

> <U+W>
-11.070

> <U>
47.077

> <W>
-58.148

> <W(PB)>
-60.054

> <W(SA)>
1.906

> <Valence>
2.039

> <Coulomb>
44.655

> <VdW>
0.383

> <VdW6>
-4.912

> <VdW12>
5.295

> <Bond>
0.159

> <Angle>
0.856

> <Pdih>
1.024

> <Idih>
0.000

> <Tether>
0.000

$$$$
VeraChem MOL file


 20 19  0  0  0  0  0  0  0  0999 V2000     
   21.8045   18.6638   20.2980 N   0  3  0  0  0  0  0  0  0  0  0  0
   22.7768   18.4297   20.5218 H   0  0  0  0  0  0  0  0  0  0  0  0
   21.3266   17.7849   20.0757 H   0  0  0  0  0  0  0  0  0  0  0  0
   21.8235   19.2184   19.4357 H   0  0  0  0  0  0  0  0  0  0  0  0
   21.1259   19.4069   21.4309 C   0  0  0  0  0  0  0  0  0  0  0  0
   20.1087   19.6491   21.1118 H   0  0  0  0  0  0  0  0  0  0  0  0
   21.6674   20.3426   21.5937 H   0  0  0  0  0  0  0  0  0  0  0  0
   21.0801   18.6001   22.7422 C   0  0  0  0  0  0  0  0  0  0  0  0
   20.5446   17.6564   22.5776 H   0  0  0  0  0  0  0  0  0  0  0  0
   22.1035   18.3266   23.0313 H   0  0  0  0  0  0  0  0  0  0  0  0
   20.4252   19.3848   23.9064 C   0  0  0  0  0  0  0  0  0  0  0  0
   21.0459   20.2611   24.1394 H   0  0  0  0  0  0  0  0  0  0  0  0
   20.4363   18.7584   24.8090 H   0  0  0  0  0  0  0  0  0  0  0  0
   18.9742   19.8592   23.6365 C   0  0  0  0  0  0  0  0  0  0  0  0
   18.6190   20.4166   24.5146 H   0  0  0  0  0  0  0  0  0  0  0  0
   18.9570   20.5719   22.8007 H   0  0  0  0  0  0  0  0  0  0  0  0
   17.9917   18.7004   23.3517 C   0  0  0  0  0  0  0  0  0  0  0  0
   18.0054   17.9624   24.1642 H   0  0  0  0  0  0  0  0  0  0  0  0
   16.9658   19.0799   23.2604 H   0  0  0  0  0  0  0  0  0  0  0  0
   18.2372   18.1854   22.4147 H   0  0  0  0  0  0  0  0  0  0  0  0
  1  2  1  0  0  0  0
  1  3  1  0  0  0  0
  1  4  1  0  0  0  0
  1  5  1  0  0  0  0
  5  6  1  0  0  0  0
  5  7  1  0  0  0  0
  5  8  1  0  0  0  0
  8  9  1  0  0  0  0
  8 10  1  0  0  0  0
  8 11  1  0  0  0  0
 11 12  1  0  0  0  0
 11 13  1  0  0  0  0
 11 14  1  0  0  0  0
 14 15  1  0  0  0  0
 14 16  1  0  0  0  0
 14 17  1  0  0  0  0
 17 18  1  0  0  0  0
 17 19  1  0  0  0  0
 17 20  1  0  0  0  0
M  END
> <VConfSearch Rank>
87

> <Conf_Id>
22

> <Delta U+W>
0.731

> <U+W>
-11.047

> <U>
47.078

> <W>
-58.125

> <W(PB)>
-60.031

> <W(SA)>
1.906

> <Valence>
2.039

> <Coulomb>
44.655

> <VdW>
0.383

> <VdW6>
-4.913

> <VdW12>
5.296

> <Bond>
0.159

> <Angle>
0.856

> <Pdih>
1.024

> <Idih>
0.000

> <Tether>
0.000

$$$$
VeraChem MOL file


 20 19  0  0  0  0  0  0  0  0999 V2000     
   20.8329   18.7088   25.1195 N   0  3  0  0  0  0  0  0  0  0  0  0
   21.2951   17.7966   25.0526 H   0  0  0  0  0  0  0  0  0  0  0  0
   21.5234   19.3699   25.4889 H   0  0  0  0  0  0  0  0  0  0  0  0
   20.0985   18.6188   25.8295 H   0  0  0  0  0  0  0  0  0  0  0  0
   20.2742   19.1600   23.7850 C   0  0  0  0  0  0  0  0  0  0  0  0
   19.7743   20.1208   23.9348 H   0  0  0  0  0  0  0  0  0  0  0  0
   19.5288   18.4253   23.4722 H   0  0  0  0  0  0  0  0  0  0  0  0
   21.3518   19.2996   22.6951 C   0  0  0  0  0  0  0  0  0  0  0  0
   22.1538   19.9477   23.0726 H   0  0  0  0  0  0  0  0  0  0  0  0
   21.8089   18.3194   22.5053 H   0  0  0  0  0  0  0  0  0  0  0  0
   20.8258   19.8948   21.3642 C   0  0  0  0  0  0  0  0  0  0  0  0
   21.6905   20.0325   20.7002 H   0  0  0  0  0  0  0  0  0  0  0  0
   20.4190   20.9013   21.5339 H   0  0  0  0  0  0  0  0  0  0  0  0
   19.7867   19.0155   20.6211 C   0  0  0  0  0  0  0  0  0  0  0  0
   19.8644   19.2253   19.5449 H   0  0  0  0  0  0  0  0  0  0  0  0
   20.0336   17.9512   20.7393 H   0  0  0  0  0  0  0  0  0  0  0  0
   18.3234   19.2775   21.0488 C   0  0  0  0  0  0  0  0  0  0  0  0
   18.1401   19.0042   22.0931 H   0  0  0  0  0  0  0  0  0  0  0  0
   18.0596   20.3355   20.9221 H   0  0  0  0  0  0  0  0  0  0  0  0
   17.6339   18.6879   20.4308 H   0  0  0  0  0  0  0  0  0  0  0  0
  1  2  1  0  0  0  0
  1  3  1  0  0  0  0
  1  4  1  0  0  0  0
  1  5  1  0  0  0  0
  5  6  1  0  0  0  0
  5  7  1  0  0  0  0
  5  8  1  0  0  0  0
  8  9  1  0  0  0  0
  8 10  1  0  0  0  0
  8 11  1  0  0  0  0
 11 12  1  0  0  0  0
 11 13  1  0  0  0  0
 11 14  1  0  0  0  0
 14 15  1  0  0  0  0
 14 16  1  0  0  0  0
 14 17  1  0  0  0  0
 17 18  1  0  0  0  0
 17 19  1  0  0  0  0
 17 20  1  0  0  0  0
M  END
> <VConfSearch Rank>
88

> <Conf_Id>
61

> <Delta U+W>
2.669

> <U+W>
-9.108

> <U>
48.916

> <W>
-58.025

> <W(PB)>
-59.935

> <W(SA)>
1.911

> <Valence>
3.785

> <Coulomb>
44.716

> <VdW>
0.415

> <VdW6>
-4.836

> <VdW12>
5.251

> <Bond>
0.175

> <Angle>
1.195

> <Pdih>
2.415

> <Idih>
0.000

> <Tether>
0.000

$$$$
VeraChem MOL file


 20 19  0  0  0  0  0  0  0  0999 V2000     
   22.3806   19.1569   22.8881 N   0  3  0  0  0  0  0  0  0  0  0  0
   23.3171   18.8919   22.5650 H   0  0  0  0  0  0  0  0  0  0  0  0
   22.4957   19.5841   23.8125 H   0  0  0  0  0  0  0  0  0  0  0  0
   21.8517   18.2908   23.0193 H   0  0  0  0  0  0  0  0  0  0  0  0
   21.6960   20.0976   21.9150 C   0  0  0  0  0  0  0  0  0  0  0  0
   21.6523   19.6145   20.9351 H   0  0  0  0  0  0  0  0  0  0  0  0
   22.3322   20.9825   21.8272 H   0  0  0  0  0  0  0  0  0  0  0  0
   20.2811   20.5389   22.3451 C   0  0  0  0  0  0  0  0  0  0  0  0
   20.2693   20.7717   23.4182 H   0  0  0  0  0  0  0  0  0  0  0  0
   20.0551   21.4821   21.8304 H   0  0  0  0  0  0  0  0  0  0  0  0
   19.1574   19.5284   21.9988 C   0  0  0  0  0  0  0  0  0  0  0  0
   19.1457   19.3513   20.9144 H   0  0  0  0  0  0  0  0  0  0  0  0
   18.1923   19.9939   22.2424 H   0  0  0  0  0  0  0  0  0  0  0  0
   19.2604   18.1753   22.7411 C   0  0  0  0  0  0  0  0  0  0  0  0
   20.1447   17.6242   22.3975 H   0  0  0  0  0  0  0  0  0  0  0  0
   19.3809   18.3489   23.8197 H   0  0  0  0  0  0  0  0  0  0  0  0
   18.0120   17.2994   22.5020 C   0  0  0  0  0  0  0  0  0  0  0  0
   18.1050   16.3399   23.0271 H   0  0  0  0  0  0  0  0  0  0  0  0
   17.1040   17.7960   22.8683 H   0  0  0  0  0  0  0  0  0  0  0  0
   17.8777   17.0867   21.4334 H   0  0  0  0  0  0  0  0  0  0  0  0
  1  2  1  0  0  0  0
  1  3  1  0  0  0  0
  1  4  1  0  0  0  0
  1  5  1  0  0  0  0
  5  6  1  0  0  0  0
  5  7  1  0  0  0  0
  5  8  1  0  0  0  0
  8  9  1  0  0  0  0
  8 10  1  0  0  0  0
  8 11  1  0  0  0  0
 11 12  1  0  0  0  0
 11 13  1  0  0  0  0
 11 14  1  0  0  0  0
 14 15  1  0  0  0  0
 14 16  1  0  0  0  0
 14 17  1  0  0  0  0
 17 18  1  0  0  0  0
 17 19  1  0  0  0  0
 17 20  1  0  0  0  0
M  END
> <VConfSearch Rank>
89

> <Conf_Id>
69

> <Delta U+W>
2.811

> <U+W>
-8.967

> <U>
49.216

> <W>
-58.183

> <W(PB)>
-60.064

> <W(SA)>
1.881

> <Valence>
2.929

> <Coulomb>
46.006

> <VdW>
0.281

> <VdW6>
-4.909

> <VdW12>
5.190

> <Bond>
0.156

> <Angle>
0.974

> <Pdih>
1.799

> <Idih>
0.000

> <Tether>
0.000

$$$$
VeraChem MOL file


 20 19  0  0  0  0  0  0  0  0999 V2000     
   18.8115   17.4724   21.5398 N   0  3  0  0  0  0  0  0  0  0  0  0
   19.7912   17.5992   21.2729 H   0  0  0  0  0  0  0  0  0  0  0  0
   18.7802   16.7077   22.2213 H   0  0  0  0  0  0  0  0  0  0  0  0
   18.3117   17.1470   20.7056 H   0  0  0  0  0  0  0  0  0  0  0  0
   18.2058   18.7468   22.0961 C   0  0  0  0  0  0  0  0  0  0  0  0
   17.1637   18.5233   22.3404 H   0  0  0  0  0  0  0  0  0  0  0  0
   18.2128   19.5079   21.3111 H   0  0  0  0  0  0  0  0  0  0  0  0
   18.9106   19.2886   23.3575 C   0  0  0  0  0  0  0  0  0  0  0  0
   18.1934   19.9247   23.8931 H   0  0  0  0  0  0  0  0  0  0  0  0
   19.1480   18.4622   24.0405 H   0  0  0  0  0  0  0  0  0  0  0  0
   20.1773   20.1366   23.0743 C   0  0  0  0  0  0  0  0  0  0  0  0
   20.5238   20.5616   24.0265 H   0  0  0  0  0  0  0  0  0  0  0  0
   19.9107   20.9915   22.4375 H   0  0  0  0  0  0  0  0  0  0  0  0
   21.3417   19.3529   22.4244 C   0  0  0  0  0  0  0  0  0  0  0  0
   21.5427   18.4375   22.9986 H   0  0  0  0  0  0  0  0  0  0  0  0
   21.0678   19.0474   21.4068 H   0  0  0  0  0  0  0  0  0  0  0  0
   22.6285   20.2026   22.3526 C   0  0  0  0  0  0  0  0  0  0  0  0
   22.9636   20.4989   23.3552 H   0  0  0  0  0  0  0  0  0  0  0  0
   23.4417   19.6360   21.8806 H   0  0  0  0  0  0  0  0  0  0  0  0
   22.4672   21.1144   21.7629 H   0  0  0  0  0  0  0  0  0  0  0  0
  1  2  1  0  0  0  0
  1  3  1  0  0  0  0
  1  4  1  0  0  0  0
  1  5  1  0  0  0  0
  5  6  1  0  0  0  0
  5  7  1  0  0  0  0
  5  8  1  0  0  0  0
  8  9  1  0  0  0  0
  8 10  1  0  0  0  0
  8 11  1  0  0  0  0
 11 12  1  0  0  0  0
 11 13  1  0  0  0  0
 11 14  1  0  0  0  0
 14 15  1  0  0  0  0
 14 16  1  0  0  0  0
 14 17  1  0  0  0  0
 17 18  1  0  0  0  0
 17 19  1  0  0  0  0
 17 20  1  0  0  0  0
M  END
> <VConfSearch Rank>
90

> <Conf_Id>
26

> <Delta U+W>
2.809

> <U+W>
-8.969

> <U>
49.216

> <W>
-58.185

> <W(PB)>
-60.088

> <W(SA)>
1.903

> <Valence>
2.929

> <Coulomb>
46.006

> <VdW>
0.281

> <VdW6>
-4.909

> <VdW12>
5.190

> <Bond>
0.156

> <Angle>
0.974

> <Pdih>
1.799

> <Idih>
0.000

> <Tether>
0.000

$$$$
VeraChem MOL file


 20 19  0  0  0  0  0  0  0  0999 V2000     
   21.1103   17.5311   20.9812 N   0  3  0  0  0  0  0  0  0  0  0  0
   21.0486   18.4096   20.4583 H   0  0  0  0  0  0  0  0  0  0  0  0
   22.1057   17.3223   21.1061 H   0  0  0  0  0  0  0  0  0  0  0  0
   20.7242   16.7956   20.3801 H   0  0  0  0  0  0  0  0  0  0  0  0
   20.3812   17.6155   22.3080 C   0  0  0  0  0  0  0  0  0  0  0  0
   20.4614   16.6397   22.7947 H   0  0  0  0  0  0  0  0  0  0  0  0
   19.3244   17.8065   22.1036 H   0  0  0  0  0  0  0  0  0  0  0  0
   20.9334   18.7043   23.2502 C   0  0  0  0  0  0  0  0  0  0  0  0
   20.4027   18.6447   24.2091 H   0  0  0  0  0  0  0  0  0  0  0  0
   21.9851   18.4844   23.4760 H   0  0  0  0  0  0  0  0  0  0  0  0
   20.8234   20.1442   22.6829 C   0  0  0  0  0  0  0  0  0  0  0  0
   21.4869   20.2438   21.8134 H   0  0  0  0  0  0  0  0  0  0  0  0
   21.2082   20.8497   23.4322 H   0  0  0  0  0  0  0  0  0  0  0  0
   19.3914   20.5743   22.2737 C   0  0  0  0  0  0  0  0  0  0  0  0
   19.4342   21.5949   21.8683 H   0  0  0  0  0  0  0  0  0  0  0  0
   19.0229   19.9403   21.4559 H   0  0  0  0  0  0  0  0  0  0  0  0
   18.3845   20.5464   23.4460 C   0  0  0  0  0  0  0  0  0  0  0  0
   18.7379   21.1603   24.2846 H   0  0  0  0  0  0  0  0  0  0  0  0
   17.4118   20.9426   23.1269 H   0  0  0  0  0  0  0  0  0  0  0  0
   18.2207   19.5253   23.8121 H   0  0  0  0  0  0  0  0  0  0  0  0
  1  2  1  0  0  0  0
  1  3  1  0  0  0  0
  1  4  1  0  0  0  0
  1  5  1  0  0  0  0
  5  6  1  0  0  0  0
  5  7  1  0  0  0  0
  5  8  1  0  0  0  0
  8  9  1  0  0  0  0
  8 10  1  0  0  0  0
  8 11  1  0  0  0  0
 11 12  1  0  0  0  0
 11 13  1  0  0  0  0
 11 14  1  0  0  0  0
 14 15  1  0  0  0  0
 14 16  1  0  0  0  0
 14 17  1  0  0  0  0
 17 18  1  0  0  0  0
 17 19  1  0  0  0  0
 17 20  1  0  0  0  0
M  END
> <VConfSearch Rank>
91

> <Conf_Id>
2

> <Delta U+W>
0.994

> <U+W>
-10.784

> <U>
47.562

> <W>
-58.346

> <W(PB)>
-60.221

> <W(SA)>
1.875

> <Valence>
2.149

> <Coulomb>
45.034

> <VdW>
0.378

> <VdW6>
-5.599

> <VdW12>
5.977

> <Bond>
0.185

> <Angle>
0.935

> <Pdih>
1.028

> <Idih>
0.000

> <Tether>
0.000

$$$$
VeraChem MOL file


 20 19  0  0  0  0  0  0  0  0999 V2000     
   17.8890   19.8390   22.7255 N   0  3  0  0  0  0  0  0  0  0  0  0
   17.3795   20.0953   21.8742 H   0  0  0  0  0  0  0  0  0  0  0  0
   17.8768   18.8169   22.7894 H   0  0  0  0  0  0  0  0  0  0  0  0
   17.3451   20.1964   23.5178 H   0  0  0  0  0  0  0  0  0  0  0  0
   19.3039   20.3840   22.7214 C   0  0  0  0  0  0  0  0  0  0  0  0
   19.7784   20.1051   23.6659 H   0  0  0  0  0  0  0  0  0  0  0  0
   19.2405   21.4749   22.6832 H   0  0  0  0  0  0  0  0  0  0  0  0
   20.1589   19.8795   21.5413 C   0  0  0  0  0  0  0  0  0  0  0  0
   19.6916   20.1942   20.5988 H   0  0  0  0  0  0  0  0  0  0  0  0
   21.1353   20.3795   21.5726 H   0  0  0  0  0  0  0  0  0  0  0  0
   20.3618   18.3415   21.5219 C   0  0  0  0  0  0  0  0  0  0  0  0
   21.0064   18.0807   20.6712 H   0  0  0  0  0  0  0  0  0  0  0  0
   19.3992   17.8503   21.3261 H   0  0  0  0  0  0  0  0  0  0  0  0
   20.9730   17.7498   22.8178 C   0  0  0  0  0  0  0  0  0  0  0  0
   20.2966   17.9152   23.6673 H   0  0  0  0  0  0  0  0  0  0  0  0
   21.0514   16.6597   22.7026 H   0  0  0  0  0  0  0  0  0  0  0  0
   22.3718   18.3169   23.1503 C   0  0  0  0  0  0  0  0  0  0  0  0
   22.3268   19.3873   23.3866 H   0  0  0  0  0  0  0  0  0  0  0  0
   22.7973   17.8040   24.0225 H   0  0  0  0  0  0  0  0  0  0  0  0
   23.0638   18.1790   22.3094 H   0  0  0  0  0  0  0  0  0  0  0  0
  1  2  1  0  0  0  0
  1  3  1  0  0  0  0
  1  4  1  0  0  0  0
  1  5  1  0  0  0  0
  5  6  1  0  0  0  0
  5  7  1  0  0  0  0
  5  8  1  0  0  0  0
  8  9  1  0  0  0  0
  8 10  1  0  0  0  0
  8 11  1  0  0  0  0
 11 12  1  0  0  0  0
 11 13  1  0  0  0  0
 11 14  1  0  0  0  0
 14 15  1  0  0  0  0
 14 16  1  0  0  0  0
 14 17  1  0  0  0  0
 17 18  1  0  0  0  0
 17 19  1  0  0  0  0
 17 20  1  0  0  0  0
M  END
> <VConfSearch Rank>
92

> <Conf_Id>
1

> <Delta U+W>
1.032

> <U+W>
-10.746

> <U>
47.562

> <W>
-58.308

> <W(PB)>
-60.184

> <W(SA)>
1.877

> <Valence>
2.149

> <Coulomb>
45.035

> <VdW>
0.378

> <VdW6>
-5.599

> <VdW12>
5.978

> <Bond>
0.185

> <Angle>
0.935

> <Pdih>
1.028

> <Idih>
0.000

> <Tether>
0.000

$$$$
VeraChem MOL file


 20 19  0  0  0  0  0  0  0  0999 V2000     
   20.5265   17.1419   23.6974 N   0  3  0  0  0  0  0  0  0  0  0  0
   19.7708   16.4497   23.7013 H   0  0  0  0  0  0  0  0  0  0  0  0
   21.0216   17.0446   22.8063 H   0  0  0  0  0  0  0  0  0  0  0  0
   21.1835   16.8700   24.4361 H   0  0  0  0  0  0  0  0  0  0  0  0
   20.0027   18.5505   23.9003 C   0  0  0  0  0  0  0  0  0  0  0  0
   20.8578   19.2280   23.9164 H   0  0  0  0  0  0  0  0  0  0  0  0
   19.5275   18.5855   24.8844 H   0  0  0  0  0  0  0  0  0  0  0  0
   18.9834   18.9969   22.8304 C   0  0  0  0  0  0  0  0  0  0  0  0
   18.1466   18.2860   22.8399 H   0  0  0  0  0  0  0  0  0  0  0  0
   18.5565   19.9670   23.1173 H   0  0  0  0  0  0  0  0  0  0  0  0
   19.5515   19.0843   21.3882 C   0  0  0  0  0  0  0  0  0  0  0  0
   18.7094   18.9894   20.6887 H   0  0  0  0  0  0  0  0  0  0  0  0
   20.2047   18.2280   21.1766 H   0  0  0  0  0  0  0  0  0  0  0  0
   20.2864   20.4072   21.0510 C   0  0  0  0  0  0  0  0  0  0  0  0
   20.5580   20.3884   19.9861 H   0  0  0  0  0  0  0  0  0  0  0  0
   19.5980   21.2552   21.1725 H   0  0  0  0  0  0  0  0  0  0  0  0
   21.5656   20.6615   21.8786 C   0  0  0  0  0  0  0  0  0  0  0  0
   22.2262   19.7850   21.8718 H   0  0  0  0  0  0  0  0  0  0  0  0
   22.1275   21.5077   21.4626 H   0  0  0  0  0  0  0  0  0  0  0  0
   21.3253   20.9139   22.9181 H   0  0  0  0  0  0  0  0  0  0  0  0
  1  2  1  0  0  0  0
  1  3  1  0  0  0  0
  1  4  1  0  0  0  0
  1  5  1  0  0  0  0
  5  6  1  0  0  0  0
  5  7  1  0  0  0  0
  5  8  1  0  0  0  0
  8  9  1  0  0  0  0
  8 10  1  0  0  0  0
  8 11  1  0  0  0  0
 11 12  1  0  0  0  0
 11 13  1  0  0  0  0
 11 14  1  0  0  0  0
 14 15  1  0  0  0  0
 14 16  1  0  0  0  0
 14 17  1  0  0  0  0
 17 18  1  0  0  0  0
 17 19  1  0  0  0  0
 17 20  1  0  0  0  0
M  END
> <VConfSearch Rank>
93

> <Conf_Id>
80

> <Delta U+W>
2.920

> <U+W>
-8.857

> <U>
49.434

> <W>
-58.292

> <W(PB)>
-60.170

> <W(SA)>
1.879

> <Valence>
3.798

> <Coulomb>
45.253

> <VdW>
0.384

> <VdW6>
-5.595

> <VdW12>
5.979

> <Bond>
0.198

> <Angle>
1.368

> <Pdih>
2.231

> <Idih>
0.000

> <Tether>
0.000

$$$$
VeraChem MOL file


 20 19  0  0  0  0  0  0  0  0999 V2000     
   19.3751   20.2047   20.5454 N   0  3  0  0  0  0  0  0  0  0  0  0
   20.0362   20.4709   19.8091 H   0  0  0  0  0  0  0  0  0  0  0  0
   18.4359   20.2645   20.1386 H   0  0  0  0  0  0  0  0  0  0  0  0
   19.4308   20.9206   21.2756 H   0  0  0  0  0  0  0  0  0  0  0  0
   19.6653   18.8197   21.0908 C   0  0  0  0  0  0  0  0  0  0  0  0
   19.5454   18.1108   20.2671 H   0  0  0  0  0  0  0  0  0  0  0  0
   18.9098   18.5899   21.8438 H   0  0  0  0  0  0  0  0  0  0  0  0
   21.0813   18.6681   21.6865 C   0  0  0  0  0  0  0  0  0  0  0  0
   21.2591   17.6141   21.9377 H   0  0  0  0  0  0  0  0  0  0  0  0
   21.8088   18.9168   20.9024 H   0  0  0  0  0  0  0  0  0  0  0  0
   21.3613   19.5541   22.9303 C   0  0  0  0  0  0  0  0  0  0  0  0
   20.9483   20.5612   22.7894 H   0  0  0  0  0  0  0  0  0  0  0  0
   22.4487   19.6923   23.0069 H   0  0  0  0  0  0  0  0  0  0  0  0
   20.8733   18.9654   24.2791 C   0  0  0  0  0  0  0  0  0  0  0  0
   21.3642   17.9991   24.4611 H   0  0  0  0  0  0  0  0  0  0  0  0
   21.2082   19.6315   25.0867 H   0  0  0  0  0  0  0  0  0  0  0  0
   19.3423   18.7926   24.3893 C   0  0  0  0  0  0  0  0  0  0  0  0
   18.9867   17.9695   23.7583 H   0  0  0  0  0  0  0  0  0  0  0  0
   19.0586   18.5532   25.4224 H   0  0  0  0  0  0  0  0  0  0  0  0
   18.8152   19.7113   24.1015 H   0  0  0  0  0  0  0  0  0  0  0  0
  1  2  1  0  0  0  0
  1  3  1  0  0  0  0
  1  4  1  0  0  0  0
  1  5  1  0  0  0  0
  5  6  1  0  0  0  0
  5  7  1  0  0  0  0
  5  8  1  0  0  0  0
  8  9  1  0  0  0  0
  8 10  1  0  0  0  0
  8 11  1  0  0  0  0
 11 12  1  0  0  0  0
 11 13  1  0  0  0  0
 11 14  1  0  0  0  0
 14 15  1  0  0  0  0
 14 16  1  0  0  0  0
 14 17  1  0  0  0  0
 17 18  1  0  0  0  0
 17 19  1  0  0  0  0
 17 20  1  0  0  0  0
M  END
> <VConfSearch Rank>
94

> <Conf_Id>
65

> <Delta U+W>
2.949

> <U+W>
-8.829

> <U>
49.435

> <W>
-58.263

> <W(PB)>
-60.125

> <W(SA)>
1.862

> <Valence>
3.797

> <Coulomb>
45.253

> <VdW>
0.384

> <VdW6>
-5.596

> <VdW12>
5.980

> <Bond>
0.198

> <Angle>
1.369

> <Pdih>
2.230

> <Idih>
0.000

> <Tether>
0.000

$$$$
VeraChem MOL file


 20 19  0  0  0  0  0  0  0  0999 V2000     
   19.6485   18.7095   24.3005 N   0  3  0  0  0  0  0  0  0  0  0  0
   18.8238   18.3780   24.8120 H   0  0  0  0  0  0  0  0  0  0  0  0
   19.8591   18.0153   23.5770 H   0  0  0  0  0  0  0  0  0  0  0  0
   20.4308   18.7069   24.9626 H   0  0  0  0  0  0  0  0  0  0  0  0
   19.4245   20.0837   23.6998 C   0  0  0  0  0  0  0  0  0  0  0  0
   19.2090   20.7634   24.5287 H   0  0  0  0  0  0  0  0  0  0  0  0
   18.5425   20.0451   23.0549 H   0  0  0  0  0  0  0  0  0  0  0  0
   20.6308   20.6247   22.9057 C   0  0  0  0  0  0  0  0  0  0  0  0
   20.5490   21.7195   22.8796 H   0  0  0  0  0  0  0  0  0  0  0  0
   21.5605   20.4081   23.4484 H   0  0  0  0  0  0  0  0  0  0  0  0
   20.7368   20.1230   21.4405 C   0  0  0  0  0  0  0  0  0  0  0  0
   21.6002   20.6259   20.9831 H   0  0  0  0  0  0  0  0  0  0  0  0
   19.8631   20.4596   20.8653 H   0  0  0  0  0  0  0  0  0  0  0  0
   20.9277   18.5941   21.2719 C   0  0  0  0  0  0  0  0  0  0  0  0
   21.5885   18.4168   20.4116 H   0  0  0  0  0  0  0  0  0  0  0  0
   21.4542   18.1744   22.1396 H   0  0  0  0  0  0  0  0  0  0  0  0
   19.6013   17.8411   21.0118 C   0  0  0  0  0  0  0  0  0  0  0  0
   18.8555   18.0230   21.7930 H   0  0  0  0  0  0  0  0  0  0  0  0
   19.1601   18.1553   20.0568 H   0  0  0  0  0  0  0  0  0  0  0  0
   19.7756   16.7588   20.9544 H   0  0  0  0  0  0  0  0  0  0  0  0
  1  2  1  0  0  0  0
  1  3  1  0  0  0  0
  1  4  1  0  0  0  0
  1  5  1  0  0  0  0
  5  6  1  0  0  0  0
  5  7  1  0  0  0  0
  5  8  1  0  0  0  0
  8  9  1  0  0  0  0
  8 10  1  0  0  0  0
  8 11  1  0  0  0  0
 11 12  1  0  0  0  0
 11 13  1  0  0  0  0
 11 14  1  0  0  0  0
 14 15  1  0  0  0  0
 14 16  1  0  0  0  0
 14 17  1  0  0  0  0
 17 18  1  0  0  0  0
 17 19  1  0  0  0  0
 17 20  1  0  0  0  0
M  END
> <VConfSearch Rank>
95

> <Conf_Id>
77

> <Delta U+W>
5.366

> <U+W>
-6.412

> <U>
51.542

> <W>
-57.954

> <W(PB)>
-59.811

> <W(SA)>
1.857

> <Valence>
5.347

> <Coulomb>
45.870

> <VdW>
0.325

> <VdW6>
-6.161

> <VdW12>
6.486

> <Bond>
0.201

> <Angle>
1.484

> <Pdih>
3.662

> <Idih>
0.000

> <Tether>
0.000

$$$$
VeraChem MOL file


 20 19  0  0  0  0  0  0  0  0999 V2000     
   19.6092   17.8878   23.9486 N   0  3  0  0  0  0  0  0  0  0  0  0
   18.6203   17.6197   23.9252 H   0  0  0  0  0  0  0  0  0  0  0  0
   20.0506   17.4988   23.1097 H   0  0  0  0  0  0  0  0  0  0  0  0
   20.0263   17.4187   24.7595 H   0  0  0  0  0  0  0  0  0  0  0  0
   19.7825   19.3928   24.0173 C   0  0  0  0  0  0  0  0  0  0  0  0
   20.8483   19.6194   24.1062 H   0  0  0  0  0  0  0  0  0  0  0  0
   19.2866   19.7300   24.9316 H   0  0  0  0  0  0  0  0  0  0  0  0
   19.1850   20.1480   22.8127 C   0  0  0  0  0  0  0  0  0  0  0  0
   18.2079   19.7194   22.5527 H   0  0  0  0  0  0  0  0  0  0  0  0
   18.9829   21.1789   23.1323 H   0  0  0  0  0  0  0  0  0  0  0  0
   20.0933   20.2117   21.5554 C   0  0  0  0  0  0  0  0  0  0  0  0
   21.0157   20.7621   21.7874 H   0  0  0  0  0  0  0  0  0  0  0  0
   19.5708   20.8194   20.8036 H   0  0  0  0  0  0  0  0  0  0  0  0
   20.4374   18.8443   20.9119 C   0  0  0  0  0  0  0  0  0  0  0  0
   19.6308   18.1209   21.0917 H   0  0  0  0  0  0  0  0  0  0  0  0
   20.4814   18.9721   19.8210 H   0  0  0  0  0  0  0  0  0  0  0  0
   21.8010   18.2799   21.3767 C   0  0  0  0  0  0  0  0  0  0  0  0
   21.9781   17.2880   20.9408 H   0  0  0  0  0  0  0  0  0  0  0  0
   22.6205   18.9342   21.0518 H   0  0  0  0  0  0  0  0  0  0  0  0
   21.8675   18.1877   22.4661 H   0  0  0  0  0  0  0  0  0  0  0  0
  1  2  1  0  0  0  0
  1  3  1  0  0  0  0
  1  4  1  0  0  0  0
  1  5  1  0  0  0  0
  5  6  1  0  0  0  0
  5  7  1  0  0  0  0
  5  8  1  0  0  0  0
  8  9  1  0  0  0  0
  8 10  1  0  0  0  0
  8 11  1  0  0  0  0
 11 12  1  0  0  0  0
 11 13  1  0  0  0  0
 11 14  1  0  0  0  0
 14 15  1  0  0  0  0
 14 16  1  0  0  0  0
 14 17  1  0  0  0  0
 17 18  1  0  0  0  0
 17 19  1  0  0  0  0
 17 20  1  0  0  0  0
M  END
> <VConfSearch Rank>
96

> <Conf_Id>
67

> <Delta U+W>
5.353

> <U+W>
-6.425

> <U>
51.541

> <W>
-57.966

> <W(PB)>
-59.821

> <W(SA)>
1.855

> <Valence>
5.347

> <Coulomb>
45.870

> <VdW>
0.325

> <VdW6>
-6.161

> <VdW12>
6.486

> <Bond>
0.201

> <Angle>
1.485

> <Pdih>
3.662

> <Idih>
0.000

> <Tether>
0.000

$$$$
VeraChem MOL file


 20 19  0  0  0  0  0  0  0  0999 V2000     
   22.7358   17.2234   22.6343 N   0  3  0  0  0  0  0  0  0  0  0  0
   22.2571   16.3565   22.8984 H   0  0  0  0  0  0  0  0  0  0  0  0
   23.5170   16.9578   22.0255 H   0  0  0  0  0  0  0  0  0  0  0  0
   23.1449   17.6140   23.4890 H   0  0  0  0  0  0  0  0  0  0  0  0
   21.8002   18.2030   21.9550 C   0  0  0  0  0  0  0  0  0  0  0  0
   21.4269   17.7343   21.0404 H   0  0  0  0  0  0  0  0  0  0  0  0
   22.3812   19.0861   21.6755 H   0  0  0  0  0  0  0  0  0  0  0  0
   20.6150   18.6227   22.8428 C   0  0  0  0  0  0  0  0  0  0  0  0
   20.0437   17.7312   23.1342 H   0  0  0  0  0  0  0  0  0  0  0  0
   20.9948   19.0783   23.7671 H   0  0  0  0  0  0  0  0  0  0  0  0
   19.6872   19.6201   22.1141 C   0  0  0  0  0  0  0  0  0  0  0  0
   19.3132   19.1629   21.1873 H   0  0  0  0  0  0  0  0  0  0  0  0
   20.2631   20.5085   21.8195 H   0  0  0  0  0  0  0  0  0  0  0  0
   18.4931   20.0485   22.9963 C   0  0  0  0  0  0  0  0  0  0  0  0
   17.9130   19.1629   23.2915 H   0  0  0  0  0  0  0  0  0  0  0  0
   18.8627   20.5083   23.9236 H   0  0  0  0  0  0  0  0  0  0  0  0
   17.5689   21.0448   22.2641 C   0  0  0  0  0  0  0  0  0  0  0  0
   17.1556   20.6010   21.3489 H   0  0  0  0  0  0  0  0  0  0  0  0
   16.7277   21.3369   22.9060 H   0  0  0  0  0  0  0  0  0  0  0  0
   18.1127   21.9570   21.9860 H   0  0  0  0  0  0  0  0  0  0  0  0
  1  2  1  0  0  0  0
  1  3  1  0  0  0  0
  1  4  1  0  0  0  0
  1  5  1  0  0  0  0
  5  6  1  0  0  0  0
  5  7  1  0  0  0  0
  5  8  1  0  0  0  0
  8  9  1  0  0  0  0
  8 10  1  0  0  0  0
  8 11  1  0  0  0  0
 11 12  1  0  0  0  0
 11 13  1  0  0  0  0
 11 14  1  0  0  0  0
 14 15  1  0  0  0  0
 14 16  1  0  0  0  0
 14 17  1  0  0  0  0
 17 18  1  0  0  0  0
 17 19  1  0  0  0  0
 17 20  1  0  0  0  0
M  END
> <VConfSearch Rank>
97

> <Conf_Id>
72

> <Delta U+W>
0.000

> <U+W>
-11.778

> <U>
45.772

> <W>
-57.550

> <W(PB)>
-59.511

> <W(SA)>
1.961

> <Valence>
1.299

> <Coulomb>
44.177

> <VdW>
0.297

> <VdW6>
-3.490

> <VdW12>
3.786

> <Bond>
0.096

> <Angle>
0.381

> <Pdih>
0.822

> <Idih>
0.000

> <Tether>
0.000

$$$$
VeraChem MOL file


 20 19  0  0  0  0  0  0  0  0999 V2000     
   17.8174   20.8165   23.5456 N   0  3  0  0  0  0  0  0  0  0  0  0
   17.5127   21.0524   22.5960 H   0  0  0  0  0  0  0  0  0  0  0  0
   17.2308   20.0395   23.8660 H   0  0  0  0  0  0  0  0  0  0  0  0
   17.5929   21.6224   24.1386 H   0  0  0  0  0  0  0  0  0  0  0  0
   19.2922   20.4720   23.5985 C   0  0  0  0  0  0  0  0  0  0  0  0
   19.5526   20.2625   24.6396 H   0  0  0  0  0  0  0  0  0  0  0  0
   19.8560   21.3508   23.2739 H   0  0  0  0  0  0  0  0  0  0  0  0
   19.6637   19.2647   22.7189 C   0  0  0  0  0  0  0  0  0  0  0  0
   19.0837   18.3886   23.0379 H   0  0  0  0  0  0  0  0  0  0  0  0
   19.3820   19.4788   21.6802 H   0  0  0  0  0  0  0  0  0  0  0  0
   21.1755   18.9480   22.8052 C   0  0  0  0  0  0  0  0  0  0  0  0
   21.4528   18.8122   23.8599 H   0  0  0  0  0  0  0  0  0  0  0  0
   21.7552   19.8081   22.4422 H   0  0  0  0  0  0  0  0  0  0  0  0
   21.5866   17.6785   22.0205 C   0  0  0  0  0  0  0  0  0  0  0  0
   22.6469   17.4687   22.2197 H   0  0  0  0  0  0  0  0  0  0  0  0
   21.0264   16.8110   22.3967 H   0  0  0  0  0  0  0  0  0  0  0  0
   21.3828   17.8064   20.4935 C   0  0  0  0  0  0  0  0  0  0  0  0
   21.9103   18.6834   20.0965 H   0  0  0  0  0  0  0  0  0  0  0  0
   21.7728   16.9191   19.9783 H   0  0  0  0  0  0  0  0  0  0  0  0
   20.3207   17.8971   20.2343 H   0  0  0  0  0  0  0  0  0  0  0  0
  1  2  1  0  0  0  0
  1  3  1  0  0  0  0
  1  4  1  0  0  0  0
  1  5  1  0  0  0  0
  5  6  1  0  0  0  0
  5  7  1  0  0  0  0
  5  8  1  0  0  0  0
  8  9  1  0  0  0  0
  8 10  1  0  0  0  0
  8 11  1  0  0  0  0
 11 12  1  0  0  0  0
 11 13  1  0  0  0  0
 11 14  1  0  0  0  0
 14 15  1  0  0  0  0
 14 16  1  0  0  0  0
 14 17  1  0  0  0  0
 17 18  1  0  0  0  0
 17 19  1  0  0  0  0
 17 20  1  0  0  0  0
M  END
> <VConfSearch Rank>
98

> <Conf_Id>
42

> <Delta U+W>
0.508

> <U+W>
-11.270

> <U>
46.486

> <W>
-57.756

> <W(PB)>
-59.705

> <W(SA)>
1.949

> <Valence>
1.806

> <Coulomb>
44.248

> <VdW>
0.433

> <VdW6>
-4.089

> <VdW12>
4.522

> <Bond>
0.131

> <Angle>
0.628

> <Pdih>
1.047

> <Idih>
0.000

> <Tether>
0.000

$$$$
VeraChem MOL file


 20 19  0  0  0  0  0  0  0  0999 V2000     
   21.0745   17.8445   25.0736 N   0  3  0  0  0  0  0  0  0  0  0  0
   22.0675   18.0846   24.9921 H   0  0  0  0  0  0  0  0  0  0  0  0
   20.6264   18.5938   25.6104 H   0  0  0  0  0  0  0  0  0  0  0  0
   21.0201   16.9954   25.6460 H   0  0  0  0  0  0  0  0  0  0  0  0
   20.4250   17.6521   23.7180 C   0  0  0  0  0  0  0  0  0  0  0  0
   19.3812   17.3702   23.8807 H   0  0  0  0  0  0  0  0  0  0  0  0
   20.9304   16.8223   23.2165 H   0  0  0  0  0  0  0  0  0  0  0  0
   20.4895   18.9092   22.8321 C   0  0  0  0  0  0  0  0  0  0  0  0
   19.9954   19.7393   23.3525 H   0  0  0  0  0  0  0  0  0  0  0  0
   21.5386   19.1979   22.6844 H   0  0  0  0  0  0  0  0  0  0  0  0
   19.8179   18.6670   21.4597 C   0  0  0  0  0  0  0  0  0  0  0  0
   18.7563   18.4231   21.6050 H   0  0  0  0  0  0  0  0  0  0  0  0
   20.2750   17.7857   20.9883 H   0  0  0  0  0  0  0  0  0  0  0  0
   19.9453   19.8663   20.4891 C   0  0  0  0  0  0  0  0  0  0  0  0
   21.0065   20.0985   20.3221 H   0  0  0  0  0  0  0  0  0  0  0  0
   19.5378   19.5735   19.5113 H   0  0  0  0  0  0  0  0  0  0  0  0
   19.2065   21.1334   20.9772 C   0  0  0  0  0  0  0  0  0  0  0  0
   19.6572   21.5360   21.8927 H   0  0  0  0  0  0  0  0  0  0  0  0
   19.2507   21.9215   20.2144 H   0  0  0  0  0  0  0  0  0  0  0  0
   18.1485   20.9211   21.1787 H   0  0  0  0  0  0  0  0  0  0  0  0
  1  2  1  0  0  0  0
  1  3  1  0  0  0  0
  1  4  1  0  0  0  0
  1  5  1  0  0  0  0
  5  6  1  0  0  0  0
  5  7  1  0  0  0  0
  5  8  1  0  0  0  0
  8  9  1  0  0  0  0
  8 10  1  0  0  0  0
  8 11  1  0  0  0  0
 11 12  1  0  0  0  0
 11 13  1  0  0  0  0
 11 14  1  0  0  0  0
 14 15  1  0  0  0  0
 14 16  1  0  0  0  0
 14 17  1  0  0  0  0
 17 18  1  0  0  0  0
 17 19  1  0  0  0  0
 17 20  1  0  0  0  0
M  END
> <VConfSearch Rank>
99

> <Conf_Id>
41

> <Delta U+W>
0.515

> <U+W>
-11.263

> <U>
46.486

> <W>
-57.749

> <W(PB)>
-59.685

> <W(SA)>
1.936

> <Valence>
1.806

> <Coulomb>
44.248

> <VdW>
0.433

> <VdW6>
-4.089

> <VdW12>
4.522

> <Bond>
0.131

> <Angle>
0.628

> <Pdih>
1.047

> <Idih>
0.000

> <Tether>
0.000

$$$$
VeraChem MOL file


 20 19  0  0  0  0  0  0  0  0999 V2000     
   20.8782   21.6773   21.6793 N   0  3  0  0  0  0  0  0  0  0  0  0
   21.2799   22.3322   21.0001 H   0  0  0  0  0  0  0  0  0  0  0  0
   19.8645   21.6810   21.5333 H   0  0  0  0  0  0  0  0  0  0  0  0
   21.0517   22.0699   22.6098 H   0  0  0  0  0  0  0  0  0  0  0  0
   21.4651   20.2864   21.5345 C   0  0  0  0  0  0  0  0  0  0  0  0
   22.5482   20.3702   21.6591 H   0  0  0  0  0  0  0  0  0  0  0  0
   21.2662   19.9375   20.5176 H   0  0  0  0  0  0  0  0  0  0  0  0
   20.9132   19.2666   22.5500 C   0  0  0  0  0  0  0  0  0  0  0  0
   21.4827   18.3356   22.4382 H   0  0  0  0  0  0  0  0  0  0  0  0
   21.0989   19.6281   23.5701 H   0  0  0  0  0  0  0  0  0  0  0  0
   19.4026   18.9833   22.3529 C   0  0  0  0  0  0  0  0  0  0  0  0
   19.2275   18.6005   21.3379 H   0  0  0  0  0  0  0  0  0  0  0  0
   18.8412   19.9238   22.4295 H   0  0  0  0  0  0  0  0  0  0  0  0
   18.8217   17.9887   23.3876 C   0  0  0  0  0  0  0  0  0  0  0  0
   18.9822   18.3737   24.4043 H   0  0  0  0  0  0  0  0  0  0  0  0
   17.7329   17.9328   23.2492 H   0  0  0  0  0  0  0  0  0  0  0  0
   19.4107   16.5641   23.2717 C   0  0  0  0  0  0  0  0  0  0  0  0
   20.4779   16.5461   23.5248 H   0  0  0  0  0  0  0  0  0  0  0  0
   18.8981   15.8797   23.9600 H   0  0  0  0  0  0  0  0  0  0  0  0
   19.2910   16.1683   22.2549 H   0  0  0  0  0  0  0  0  0  0  0  0
  1  2  1  0  0  0  0
  1  3  1  0  0  0  0
  1  4  1  0  0  0  0
  1  5  1  0  0  0  0
  5  6  1  0  0  0  0
  5  7  1  0  0  0  0
  5  8  1  0  0  0  0
  8  9  1  0  0  0  0
  8 10  1  0  0  0  0
  8 11  1  0  0  0  0
 11 12  1  0  0  0  0
 11 13  1  0  0  0  0
 11 14  1  0  0  0  0
 14 15  1  0  0  0  0
 14 16  1  0  0  0  0
 14 17  1  0  0  0  0
 17 18  1  0  0  0  0
 17 19  1  0  0  0  0
 17 20  1  0  0  0  0
M  END
> <VConfSearch Rank>
100

> <Conf_Id>
33

> <Delta U+W>
0.703

> <U+W>
-11.075

> <U>
47.080

> <W>
-58.154

> <W(PB)>
-60.053

> <W(SA)>
1.899

> <Valence>
1.943

> <Coulomb>
44.572

> <VdW>
0.565

> <VdW6>
-4.575

> <VdW12>
5.139

> <Bond>
0.158

> <Angle>
0.700

> <Pdih>
1.085

> <Idih>
0.000

> <Tether>
0.000

$$$$
VeraChem MOL file


 20 19  0  0  0  0  0  0  0  0999 V2000     
   20.5400   18.8916   25.1916 N   0  3  0  0  0  0  0  0  0  0  0  0
   20.2316   19.0162   26.1616 H   0  0  0  0  0  0  0  0  0  0  0  0
   21.1591   18.0750   25.1787 H   0  0  0  0  0  0  0  0  0  0  0  0
   21.1107   19.7079   24.9530 H   0  0  0  0  0  0  0  0  0  0  0  0
   19.3667   18.7260   24.2450 C   0  0  0  0  0  0  0  0  0  0  0  0
   18.7373   19.6165   24.3245 H   0  0  0  0  0  0  0  0  0  0  0  0
   18.7842   17.8666   24.5881 H   0  0  0  0  0  0  0  0  0  0  0  0
   19.7758   18.5096   22.7748 C   0  0  0  0  0  0  0  0  0  0  0  0
   20.4219   17.6248   22.7006 H   0  0  0  0  0  0  0  0  0  0  0  0
   18.8683   18.2848   22.2007 H   0  0  0  0  0  0  0  0  0  0  0  0
   20.4897   19.7421   22.1645 C   0  0  0  0  0  0  0  0  0  0  0  0
   21.3768   19.9847   22.7643 H   0  0  0  0  0  0  0  0  0  0  0  0
   19.8288   20.6181   22.2218 H   0  0  0  0  0  0  0  0  0  0  0  0
   20.9409   19.5301   20.6988 C   0  0  0  0  0  0  0  0  0  0  0  0
   21.5337   20.4002   20.3836 H   0  0  0  0  0  0  0  0  0  0  0  0
   21.6133   18.6629   20.6383 H   0  0  0  0  0  0  0  0  0  0  0  0
   19.7652   19.3466   19.7119 C   0  0  0  0  0  0  0  0  0  0  0  0
   19.0610   20.1863   19.7755 H   0  0  0  0  0  0  0  0  0  0  0  0
   20.1348   19.2970   18.6795 H   0  0  0  0  0  0  0  0  0  0  0  0
   19.2136   18.4190   19.9082 H   0  0  0  0  0  0  0  0  0  0  0  0
  1  2  1  0  0  0  0
  1  3  1  0  0  0  0
  1  4  1  0  0  0  0
  1  5  1  0  0  0  0
  5  6  1  0  0  0  0
  5  7  1  0  0  0  0
  5  8  1  0  0  0  0
  8  9  1  0  0  0  0
  8 10  1  0  0  0  0
  8 11  1  0  0  0  0
 11 12  1  0  0  0  0
 11 13  1  0  0  0  0
 11 14  1  0  0  0  0
 14 15  1  0  0  0  0
 14 16  1  0  0  0  0
 14 17  1  0  0  0  0
 17 18  1  0  0  0  0
 17 19  1  0  0  0  0
 17 20  1  0  0  0  0
M  END
> <VConfSearch Rank>
101

> <Conf_Id>
24

> <Delta U+W>
0.847

> <U+W>
-10.931

> <U>
47.080

> <W>
-58.011

> <W(PB)>
-59.914

> <W(SA)>
1.903

> <Valence>
1.943

> <Coulomb>
44.572

> <VdW>
0.565

> <VdW6>
-4.575

> <VdW12>
5.140

> <Bond>
0.158

> <Angle>
0.700

> <Pdih>
1.085

> <Idih>
0.000

> <Tether>
0.000

$$$$
VeraChem MOL file


 20 19  0  0  0  0  0  0  0  0999 V2000     
   22.1956   18.5556   20.7990 N   0  3  0  0  0  0  0  0  0  0  0  0
   22.6092   17.6282   20.6563 H   0  0  0  0  0  0  0  0  0  0  0  0
   21.6180   18.7535   19.9760 H   0  0  0  0  0  0  0  0  0  0  0  0
   22.9680   19.2292   20.7939 H   0  0  0  0  0  0  0  0  0  0  0  0
   21.3941   18.6232   22.0833 C   0  0  0  0  0  0  0  0  0  0  0  0
   22.0622   18.3742   22.9122 H   0  0  0  0  0  0  0  0  0  0  0  0
   20.6118   17.8614   22.0313 H   0  0  0  0  0  0  0  0  0  0  0  0
   20.7579   20.0045   22.3278 C   0  0  0  0  0  0  0  0  0  0  0  0
   21.5480   20.7671   22.3367 H   0  0  0  0  0  0  0  0  0  0  0  0
   20.0941   20.2594   21.4918 H   0  0  0  0  0  0  0  0  0  0  0  0
   19.9784   20.0774   23.6646 C   0  0  0  0  0  0  0  0  0  0  0  0
   19.5633   21.0881   23.7803 H   0  0  0  0  0  0  0  0  0  0  0  0
   20.6840   19.9438   24.4964 H   0  0  0  0  0  0  0  0  0  0  0  0
   18.8353   19.0402   23.8089 C   0  0  0  0  0  0  0  0  0  0  0  0
   19.2445   18.0208   23.8019 H   0  0  0  0  0  0  0  0  0  0  0  0
   18.3672   19.1699   24.7948 H   0  0  0  0  0  0  0  0  0  0  0  0
   17.7462   19.1706   22.7200 C   0  0  0  0  0  0  0  0  0  0  0  0
   16.9174   18.4793   22.9204 H   0  0  0  0  0  0  0  0  0  0  0  0
   17.3350   20.1881   22.6925 H   0  0  0  0  0  0  0  0  0  0  0  0
   18.1411   18.9319   21.7247 H   0  0  0  0  0  0  0  0  0  0  0  0
  1  2  1  0  0  0  0
  1  3  1  0  0  0  0
  1  4  1  0  0  0  0
  1  5  1  0  0  0  0
  5  6  1  0  0  0  0
  5  7  1  0  0  0  0
  5  8  1  0  0  0  0
  8  9  1  0  0  0  0
  8 10  1  0  0  0  0
  8 11  1  0  0  0  0
 11 12  1  0  0  0  0
 11 13  1  0  0  0  0
 11 14  1  0  0  0  0
 14 15  1  0  0  0  0
 14 16  1  0  0  0  0
 14 17  1  0  0  0  0
 17 18  1  0  0  0  0
 17 19  1  0  0  0  0
 17 20  1  0  0  0  0
M  END
> <VConfSearch Rank>
102

> <Conf_Id>
64

> <Delta U+W>
0.707

> <U+W>
-11.070

> <U>
47.077

> <W>
-58.148

> <W(PB)>
-60.054

> <W(SA)>
1.906

> <Valence>
2.039

> <Coulomb>
44.655

> <VdW>
0.383

> <VdW6>
-4.912

> <VdW12>
5.295

> <Bond>
0.159

> <Angle>
0.856

> <Pdih>
1.024

> <Idih>
0.000

> <Tether>
0.000

$$$$
VeraChem MOL file


 20 19  0  0  0  0  0  0  0  0999 V2000     
   20.9887   21.2848   23.8987 N   0  3  0  0  0  0  0  0  0  0  0  0
   22.0008   21.4457   23.9036 H   0  0  0  0  0  0  0  0  0  0  0  0
   20.5880   21.9079   23.1906 H   0  0  0  0  0  0  0  0  0  0  0  0
   20.6334   21.5999   24.8075 H   0  0  0  0  0  0  0  0  0  0  0  0
   20.6477   19.8323   23.6335 C   0  0  0  0  0  0  0  0  0  0  0  0
   19.5600   19.7301   23.6731 H   0  0  0  0  0  0  0  0  0  0  0  0
   21.0792   19.2313   24.4384 H   0  0  0  0  0  0  0  0  0  0  0  0
   21.1672   19.3271   22.2743 C   0  0  0  0  0  0  0  0  0  0  0  0
   20.7417   19.9356   21.4661 H   0  0  0  0  0  0  0  0  0  0  0  0
   22.2546   19.4726   22.2290 H   0  0  0  0  0  0  0  0  0  0  0  0
   20.8533   17.8296   22.0316 C   0  0  0  0  0  0  0  0  0  0  0  0
   21.3908   17.2273   22.7771 H   0  0  0  0  0  0  0  0  0  0  0  0
   21.2602   17.5341   21.0546 H   0  0  0  0  0  0  0  0  0  0  0  0
   19.3480   17.4630   22.0855 C   0  0  0  0  0  0  0  0  0  0  0  0
   19.2449   16.3814   21.9199 H   0  0  0  0  0  0  0  0  0  0  0  0
   18.9468   17.6529   23.0904 H   0  0  0  0  0  0  0  0  0  0  0  0
   18.4954   18.2108   21.0354 C   0  0  0  0  0  0  0  0  0  0  0  0
   18.8887   18.0536   20.0228 H   0  0  0  0  0  0  0  0  0  0  0  0
   17.4593   17.8486   21.0529 H   0  0  0  0  0  0  0  0  0  0  0  0
   18.4705   19.2900   21.2314 H   0  0  0  0  0  0  0  0  0  0  0  0
  1  2  1  0  0  0  0
  1  3  1  0  0  0  0
  1  4  1  0  0  0  0
  1  5  1  0  0  0  0
  5  6  1  0  0  0  0
  5  7  1  0  0  0  0
  5  8  1  0  0  0  0
  8  9  1  0  0  0  0
  8 10  1  0  0  0  0
  8 11  1  0  0  0  0
 11 12  1  0  0  0  0
 11 13  1  0  0  0  0
 11 14  1  0  0  0  0
 14 15  1  0  0  0  0
 14 16  1  0  0  0  0
 14 17  1  0  0  0  0
 17 18  1  0  0  0  0
 17 19  1  0  0  0  0
 17 20  1  0  0  0  0
M  END
> <VConfSearch Rank>
103

> <Conf_Id>
22

> <Delta U+W>
0.731

> <U+W>
-11.047

> <U>
47.078

> <W>
-58.125

> <W(PB)>
-60.031

> <W(SA)>
1.906

> <Valence>
2.039

> <Coulomb>
44.655

> <VdW>
0.383

> <VdW6>
-4.913

> <VdW12>
5.296

> <Bond>
0.159

> <Angle>
0.856

> <Pdih>
1.024

> <Idih>
0.000

> <Tether>
0.000

$$$$
VeraChem MOL file


 20 19  0  0  0  0  0  0  0  0999 V2000     
   20.8068   17.6554   20.3174 N   0  3  0  0  0  0  0  0  0  0  0  0
   21.7447   17.3218   20.5607 H   0  0  0  0  0  0  0  0  0  0  0  0
   20.2075   16.8291   20.2263 H   0  0  0  0  0  0  0  0  0  0  0  0
   20.8738   18.0779   19.3855 H   0  0  0  0  0  0  0  0  0  0  0  0
   20.2701   18.6341   21.3425 C   0  0  0  0  0  0  0  0  0  0  0  0
   19.2843   18.9681   21.0077 H   0  0  0  0  0  0  0  0  0  0  0  0
   20.9413   19.4957   21.3614 H   0  0  0  0  0  0  0  0  0  0  0  0
   20.1624   18.0315   22.7545 C   0  0  0  0  0  0  0  0  0  0  0  0
   19.5838   17.0999   22.6976 H   0  0  0  0  0  0  0  0  0  0  0  0
   21.1633   17.7534   23.1106 H   0  0  0  0  0  0  0  0  0  0  0  0
   19.4845   18.9675   23.7871 C   0  0  0  0  0  0  0  0  0  0  0  0
   19.3803   18.4038   24.7246 H   0  0  0  0  0  0  0  0  0  0  0  0
   18.4601   19.2047   23.4682 H   0  0  0  0  0  0  0  0  0  0  0  0
   20.2642   20.2719   24.0969 C   0  0  0  0  0  0  0  0  0  0  0  0
   20.0203   20.5839   25.1222 H   0  0  0  0  0  0  0  0  0  0  0  0
   21.3463   20.0802   24.0895 H   0  0  0  0  0  0  0  0  0  0  0  0
   19.9211   21.4470   23.1513 C   0  0  0  0  0  0  0  0  0  0  0  0
   20.2202   21.2493   22.1167 H   0  0  0  0  0  0  0  0  0  0  0  0
   18.8438   21.6580   23.1602 H   0  0  0  0  0  0  0  0  0  0  0  0
   20.4400   22.3594   23.4728 H   0  0  0  0  0  0  0  0  0  0  0  0
  1  2  1  0  0  0  0
  1  3  1  0  0  0  0
  1  4  1  0  0  0  0
  1  5  1  0  0  0  0
  5  6  1  0  0  0  0
  5  7  1  0  0  0  0
  5  8  1  0  0  0  0
  8  9  1  0  0  0  0
  8 10  1  0  0  0  0
  8 11  1  0  0  0  0
 11 12  1  0  0  0  0
 11 13  1  0  0  0  0
 11 14  1  0  0  0  0
 14 15  1  0  0  0  0
 14 16  1  0  0  0  0
 14 17  1  0  0  0  0
 17 18  1  0  0  0  0
 17 19  1  0  0  0  0
 17 20  1  0  0  0  0
M  END
> <VConfSearch Rank>
104

> <Conf_Id>
61

> <Delta U+W>
2.669

> <U+W>
-9.108

> <U>
48.916

> <W>
-58.025

> <W(PB)>
-59.935

> <W(SA)>
1.911

> <Valence>
3.785

> <Coulomb>
44.716

> <VdW>
0.415

> <VdW6>
-4.836

> <VdW12>
5.251

> <Bond>
0.175

> <Angle>
1.195

> <Pdih>
2.415

> <Idih>
0.000

> <Tether>
0.000

$$$$
VeraChem MOL file


 20 19  0  0  0  0  0  0  0  0999 V2000     
   20.9325   17.0840   21.5446 N   0  3  0  0  0  0  0  0  0  0  0  0
   21.6302   16.6680   20.9187 H   0  0  0  0  0  0  0  0  0  0  0  0
   20.3114   16.3251   21.8423 H   0  0  0  0  0  0  0  0  0  0  0  0
   20.3721   17.7302   20.9830 H   0  0  0  0  0  0  0  0  0  0  0  0
   21.5813   17.7768   22.7277 C   0  0  0  0  0  0  0  0  0  0  0  0
   22.2739   18.5344   22.3513 H   0  0  0  0  0  0  0  0  0  0  0  0
   22.1648   17.0197   23.2586 H   0  0  0  0  0  0  0  0  0  0  0  0
   20.5839   18.4219   23.7128 C   0  0  0  0  0  0  0  0  0  0  0  0
   19.7336   17.7481   23.8830 H   0  0  0  0  0  0  0  0  0  0  0  0
   21.0890   18.5194   24.6829 H   0  0  0  0  0  0  0  0  0  0  0  0
   20.0836   19.8287   23.2950 C   0  0  0  0  0  0  0  0  0  0  0  0
   20.9426   20.5052   23.1858 H   0  0  0  0  0  0  0  0  0  0  0  0
   19.4784   20.2342   24.1177 H   0  0  0  0  0  0  0  0  0  0  0  0
   19.2414   19.8509   21.9979 C   0  0  0  0  0  0  0  0  0  0  0  0
   19.8704   19.5929   21.1367 H   0  0  0  0  0  0  0  0  0  0  0  0
   18.4428   19.0982   22.0577 H   0  0  0  0  0  0  0  0  0  0  0  0
   18.6153   21.2400   21.7504 C   0  0  0  0  0  0  0  0  0  0  0  0
   18.0295   21.2416   20.8221 H   0  0  0  0  0  0  0  0  0  0  0  0
   17.9441   21.5236   22.5716 H   0  0  0  0  0  0  0  0  0  0  0  0
   19.3906   22.0122   21.6606 H   0  0  0  0  0  0  0  0  0  0  0  0
  1  2  1  0  0  0  0
  1  3  1  0  0  0  0
  1  4  1  0  0  0  0
  1  5  1  0  0  0  0
  5  6  1  0  0  0  0
  5  7  1  0  0  0  0
  5  8  1  0  0  0  0
  8  9  1  0  0  0  0
  8 10  1  0  0  0  0
  8 11  1  0  0  0  0
 11 12  1  0  0  0  0
 11 13  1  0  0  0  0
 11 14  1  0  0  0  0
 14 15  1  0  0  0  0
 14 16  1  0  0  0  0
 14 17  1  0  0  0  0
 17 18  1  0  0  0  0
 17 19  1  0  0  0  0
 17 20  1  0  0  0  0
M  END
> <VConfSearch Rank>
105

> <Conf_Id>
69

> <Delta U+W>
2.811

> <U+W>
-8.967

> <U>
49.216

> <W>
-58.183

> <W(PB)>
-60.064

> <W(SA)>
1.881

> <Valence>
2.929

> <Coulomb>
46.006

> <VdW>
0.281

> <VdW6>
-4.909

> <VdW12>
5.190

> <Bond>
0.156

> <Angle>
0.974

> <Pdih>
1.799

> <Idih>
0.000

> <Tether>
0.000

$$$$
VeraChem MOL file


 20 19  0  0  0  0  0  0  0  0999 V2000     
   20.9563   18.4174   24.4085 N   0  3  0  0  0  0  0  0  0  0  0  0
   21.5458   18.5505   23.5827 H   0  0  0  0  0  0  0  0  0  0  0  0
   21.1040   19.2270   25.0192 H   0  0  0  0  0  0  0  0  0  0  0  0
   21.3187   17.5986   24.9084 H   0  0  0  0  0  0  0  0  0  0  0  0
   19.4945   18.2493   24.0406 C   0  0  0  0  0  0  0  0  0  0  0  0
   18.9465   18.1014   24.9752 H   0  0  0  0  0  0  0  0  0  0  0  0
   19.3882   17.3422   23.4396 H   0  0  0  0  0  0  0  0  0  0  0  0
   18.8855   19.4509   23.2879 C   0  0  0  0  0  0  0  0  0  0  0  0
   17.7974   19.4183   23.4323 H   0  0  0  0  0  0  0  0  0  0  0  0
   19.2213   20.3911   23.7452 H   0  0  0  0  0  0  0  0  0  0  0  0
   19.1614   19.4632   21.7623 C   0  0  0  0  0  0  0  0  0  0  0  0
   18.5888   20.2893   21.3182 H   0  0  0  0  0  0  0  0  0  0  0  0
   18.7672   18.5418   21.3116 H   0  0  0  0  0  0  0  0  0  0  0  0
   20.6514   19.6271   21.3812 C   0  0  0  0  0  0  0  0  0  0  0  0
   21.0812   20.4868   21.9143 H   0  0  0  0  0  0  0  0  0  0  0  0
   21.2174   18.7375   21.6848 H   0  0  0  0  0  0  0  0  0  0  0  0
   20.8306   19.8283   19.8612 C   0  0  0  0  0  0  0  0  0  0  0  0
   20.3119   20.7329   19.5179 H   0  0  0  0  0  0  0  0  0  0  0  0
   21.8932   19.9333   19.6064 H   0  0  0  0  0  0  0  0  0  0  0  0
   20.4327   18.9726   19.3001 H   0  0  0  0  0  0  0  0  0  0  0  0
  1  2  1  0  0  0  0
  1  3  1  0  0  0  0
  1  4  1  0  0  0  0
  1  5  1  0  0  0  0
  5  6  1  0  0  0  0
  5  7  1  0  0  0  0
  5  8  1  0  0  0  0
  8  9  1  0  0  0  0
  8 10  1  0  0  0  0
  8 11  1  0  0  0  0
 11 12  1  0  0  0  0
 11 13  1  0  0  0  0
 11 14  1  0  0  0  0
 14 15  1  0  0  0  0
 14 16  1  0  0  0  0
 14 17  1  0  0  0  0
 17 18  1  0  0  0  0
 17 19  1  0  0  0  0
 17 20  1  0  0  0  0
M  END
> <VConfSearch Rank>
106

> <Conf_Id>
26

> <Delta U+W>
2.809

> <U+W>
-8.969

> <U>
49.216

> <W>
-58.185

> <W(PB)>
-60.088

> <W(SA)>
1.903

> <Valence>
2.929

> <Coulomb>
46.006

> <VdW>
0.281

> <VdW6>
-4.909

> <VdW12>
5.190

> <Bond>
0.156

> <Angle>
0.974

> <Pdih>
1.799

> <Idih>
0.000

> <Tether>
0.000

$$$$
VeraChem MOL file


 20 19  0  0  0  0  0  0  0  0999 V2000     
   19.6973   19.2829   20.0848 N   0  3  0  0  0  0  0  0  0  0  0  0
   19.3047   20.1321   20.5016 H   0  0  0  0  0  0  0  0  0  0  0  0
   20.4724   19.5727   19.4804 H   0  0  0  0  0  0  0  0  0  0  0  0
   18.9753   18.8859   19.4745 H   0  0  0  0  0  0  0  0  0  0  0  0
   20.1469   18.2947   21.1432 C   0  0  0  0  0  0  0  0  0  0  0  0
   20.5236   17.4056   20.6302 H   0  0  0  0  0  0  0  0  0  0  0  0
   19.2715   18.0024   21.7292 H   0  0  0  0  0  0  0  0  0  0  0  0
   21.2399   18.8458   22.0813 C   0  0  0  0  0  0  0  0  0  0  0  0
   21.5586   18.0457   22.7616 H   0  0  0  0  0  0  0  0  0  0  0  0
   22.1263   19.1043   21.4871 H   0  0  0  0  0  0  0  0  0  0  0  0
   20.7983   20.0843   22.9047 C   0  0  0  0  0  0  0  0  0  0  0  0
   20.6372   20.9331   22.2265 H   0  0  0  0  0  0  0  0  0  0  0  0
   21.6250   20.3838   23.5636 H   0  0  0  0  0  0  0  0  0  0  0  0
   19.5222   19.8756   23.7596 C   0  0  0  0  0  0  0  0  0  0  0  0
   19.2907   20.8158   24.2795 H   0  0  0  0  0  0  0  0  0  0  0  0
   18.6596   19.6693   23.1115 H   0  0  0  0  0  0  0  0  0  0  0  0
   19.6643   18.7492   24.8083 C   0  0  0  0  0  0  0  0  0  0  0  0
   20.5307   18.9231   25.4595 H   0  0  0  0  0  0  0  0  0  0  0  0
   18.7710   18.7009   25.4443 H   0  0  0  0  0  0  0  0  0  0  0  0
   19.7835   17.7681   24.3320 H   0  0  0  0  0  0  0  0  0  0  0  0
  1  2  1  0  0  0  0
  1  3  1  0  0  0  0
  1  4  1  0  0  0  0
  1  5  1  0  0  0  0
  5  6  1  0  0  0  0
  5  7  1  0  0  0  0
  5  8  1  0  0  0  0
  8  9  1  0  0  0  0
  8 10  1  0  0  0  0
  8 11  1  0  0  0  0
 11 12  1  0  0  0  0
 11 13  1  0  0  0  0
 11 14  1  0  0  0  0
 14 15  1  0  0  0  0
 14 16  1  0  0  0  0
 14 17  1  0  0  0  0
 17 18  1  0  0  0  0
 17 19  1  0  0  0  0
 17 20  1  0  0  0  0
M  END
> <VConfSearch Rank>
107

> <Conf_Id>
2

> <Delta U+W>
0.994

> <U+W>
-10.784

> <U>
47.562

> <W>
-58.346

> <W(PB)>
-60.221

> <W(SA)>
1.875

> <Valence>
2.149

> <Coulomb>
45.034

> <VdW>
0.378

> <VdW6>
-5.599

> <VdW12>
5.977

> <Bond>
0.185

> <Angle>
0.935

> <Pdih>
1.028

> <Idih>
0.000

> <Tether>
0.000

$$$$
VeraChem MOL file


 20 19  0  0  0  0  0  0  0  0999 V2000     
   20.3533   20.8157   20.7846 N   0  3  0  0  0  0  0  0  0  0  0  0
   21.2946   21.0554   20.4580 H   0  0  0  0  0  0  0  0  0  0  0  0
   20.0751   19.9565   20.3015 H   0  0  0  0  0  0  0  0  0  0  0  0
   19.7265   21.5595   20.4603 H   0  0  0  0  0  0  0  0  0  0  0  0
   20.3036   20.6535   22.2913 C   0  0  0  0  0  0  0  0  0  0  0  0
   19.2715   20.4326   22.5756 H   0  0  0  0  0  0  0  0  0  0  0  0
   20.5807   21.6119   22.7387 H   0  0  0  0  0  0  0  0  0  0  0  0
   21.2378   19.5495   22.8269 C   0  0  0  0  0  0  0  0  0  0  0  0
   22.2748   19.7984   22.5654 H   0  0  0  0  0  0  0  0  0  0  0  0
   21.1968   19.5527   23.9236 H   0  0  0  0  0  0  0  0  0  0  0  0
   20.9046   18.1298   22.2974 C   0  0  0  0  0  0  0  0  0  0  0  0
   21.5965   17.4101   22.7560 H   0  0  0  0  0  0  0  0  0  0  0  0
   21.1053   18.0880   21.2184 H   0  0  0  0  0  0  0  0  0  0  0  0
   19.4486   17.6647   22.5556 C   0  0  0  0  0  0  0  0  0  0  0  0
   18.7413   18.3161   22.0248 H   0  0  0  0  0  0  0  0  0  0  0  0
   19.3186   16.6627   22.1231 H   0  0  0  0  0  0  0  0  0  0  0  0
   19.0791   17.6109   24.0554 C   0  0  0  0  0  0  0  0  0  0  0  0
   19.0834   18.6105   24.5074 H   0  0  0  0  0  0  0  0  0  0  0  0
   18.0730   17.1927   24.1889 H   0  0  0  0  0  0  0  0  0  0  0  0
   19.7820   16.9782   24.6128 H   0  0  0  0  0  0  0  0  0  0  0  0
  1  2  1  0  0  0  0
  1  3  1  0  0  0  0
  1  4  1  0  0  0  0
  1  5  1  0  0  0  0
  5  6  1  0  0  0  0
  5  7  1  0  0  0  0
  5  8  1  0  0  0  0
  8  9  1  0  0  0  0
  8 10  1  0  0  0  0
  8 11  1  0  0  0  0
 11 12  1  0  0  0  0
 11 13  1  0  0  0  0
 11 14  1  0  0  0  0
 14 15  1  0  0  0  0
 14 16  1  0  0  0  0
 14 17  1  0  0  0  0
 17 18  1  0  0  0  0
 17 19  1  0  0  0  0
 17 20  1  0  0  0  0
M  END
> <VConfSearch Rank>
108

> <Conf_Id>
1

> <Delta U+W>
1.032

> <U+W>
-10.746

> <U>
47.562

> <W>
-58.308

> <W(PB)>
-60.184

> <W(SA)>
1.877

> <Valence>
2.149

> <Coulomb>
45.035

> <VdW>
0.378

> <VdW6>
-5.599

> <VdW12>
5.978

> <Bond>
0.185

> <Angle>
0.935

> <Pdih>
1.028

> <Idih>
0.000

> <Tether>
0.000

$$$$
VeraChem MOL file


 20 19  0  0  0  0  0  0  0  0999 V2000     
   22.0881   17.7643   22.0460 N   0  3  0  0  0  0  0  0  0  0  0  0
   23.0066   18.0561   22.3940 H   0  0  0  0  0  0  0  0  0  0  0  0
   21.5790   17.3597   22.8371 H   0  0  0  0  0  0  0  0  0  0  0  0
   22.2507   17.0058   21.3753 H   0  0  0  0  0  0  0  0  0  0  0  0
   21.3297   18.9178   21.4183 C   0  0  0  0  0  0  0  0  0  0  0  0
   20.3803   18.5318   21.0438 H   0  0  0  0  0  0  0  0  0  0  0  0
   21.9124   19.2662   20.5612 H   0  0  0  0  0  0  0  0  0  0  0  0
   21.0870   20.1010   22.3795 C   0  0  0  0  0  0  0  0  0  0  0  0
   22.0629   20.4523   22.7400 H   0  0  0  0  0  0  0  0  0  0  0  0
   20.6535   20.9407   21.8203 H   0  0  0  0  0  0  0  0  0  0  0  0
   20.1892   19.7712   23.6023 C   0  0  0  0  0  0  0  0  0  0  0  0
   20.4197   20.4971   24.3944 H   0  0  0  0  0  0  0  0  0  0  0  0
   20.4493   18.7903   24.0206 H   0  0  0  0  0  0  0  0  0  0  0  0
   18.6636   19.8456   23.3360 C   0  0  0  0  0  0  0  0  0  0  0  0
   18.1395   19.6860   24.2888 H   0  0  0  0  0  0  0  0  0  0  0  0
   18.3934   20.8593   23.0085 H   0  0  0  0  0  0  0  0  0  0  0  0
   18.1388   18.8174   22.3096 C   0  0  0  0  0  0  0  0  0  0  0  0
   18.4885   17.8041   22.5453 H   0  0  0  0  0  0  0  0  0  0  0  0
   17.0412   18.8020   22.3117 H   0  0  0  0  0  0  0  0  0  0  0  0
   18.4557   19.0719   21.2913 H   0  0  0  0  0  0  0  0  0  0  0  0
  1  2  1  0  0  0  0
  1  3  1  0  0  0  0
  1  4  1  0  0  0  0
  1  5  1  0  0  0  0
  5  6  1  0  0  0  0
  5  7  1  0  0  0  0
  5  8  1  0  0  0  0
  8  9  1  0  0  0  0
  8 10  1  0  0  0  0
  8 11  1  0  0  0  0
 11 12  1  0  0  0  0
 11 13  1  0  0  0  0
 11 14  1  0  0  0  0
 14 15  1  0  0  0  0
 14 16  1  0  0  0  0
 14 17  1  0  0  0  0
 17 18  1  0  0  0  0
 17 19  1  0  0  0  0
 17 20  1  0  0  0  0
M  END
> <VConfSearch Rank>
109

> <Conf_Id>
80

> <Delta U+W>
2.920

> <U+W>
-8.857

> <U>
49.434

> <W>
-58.292

> <W(PB)>
-60.170

> <W(SA)>
1.879

> <Valence>
3.798

> <Coulomb>
45.253

> <VdW>
0.384

> <VdW6>
-5.595

> <VdW12>
5.979

> <Bond>
0.198

> <Angle>
1.368

> <Pdih>
2.231

> <Idih>
0.000

> <Tether>
0.000

$$$$
VeraChem MOL file


 20 19  0  0  0  0  0  0  0  0999 V2000     
   18.3472   18.8844   21.0979 N   0  3  0  0  0  0  0  0  0  0  0  0
   18.0286   19.6645   20.5148 H   0  0  0  0  0  0  0  0  0  0  0  0
   17.8695   18.0434   20.7576 H   0  0  0  0  0  0  0  0  0  0  0  0
   18.0068   19.0578   22.0481 H   0  0  0  0  0  0  0  0  0  0  0  0
   19.8553   18.7299   21.0590 C   0  0  0  0  0  0  0  0  0  0  0  0
   20.1359   18.5064   20.0261 H   0  0  0  0  0  0  0  0  0  0  0  0
   20.1208   17.8677   21.6727 H   0  0  0  0  0  0  0  0  0  0  0  0
   20.6230   19.9828   21.5318 C   0  0  0  0  0  0  0  0  0  0  0  0
   21.6968   19.8408   21.3518 H   0  0  0  0  0  0  0  0  0  0  0  0
   20.3212   20.8266   20.8972 H   0  0  0  0  0  0  0  0  0  0  0  0
   20.3906   20.3647   23.0186 C   0  0  0  0  0  0  0  0  0  0  0  0
   19.3312   20.2577   23.2850 H   0  0  0  0  0  0  0  0  0  0  0  0
   20.6132   21.4350   23.1297 H   0  0  0  0  0  0  0  0  0  0  0  0
   21.2731   19.6001   24.0387 C   0  0  0  0  0  0  0  0  0  0  0  0
   22.3345   19.7886   23.8252 H   0  0  0  0  0  0  0  0  0  0  0  0
   21.0866   20.0192   25.0375 H   0  0  0  0  0  0  0  0  0  0  0  0
   21.0224   18.0769   24.0917 C   0  0  0  0  0  0  0  0  0  0  0  0
   21.4073   17.5772   23.1949 H   0  0  0  0  0  0  0  0  0  0  0  0
   21.5381   17.6348   24.9540 H   0  0  0  0  0  0  0  0  0  0  0  0
   19.9526   17.8516   24.1896 H   0  0  0  0  0  0  0  0  0  0  0  0
  1  2  1  0  0  0  0
  1  3  1  0  0  0  0
  1  4  1  0  0  0  0
  1  5  1  0  0  0  0
  5  6  1  0  0  0  0
  5  7  1  0  0  0  0
  5  8  1  0  0  0  0
  8  9  1  0  0  0  0
  8 10  1  0  0  0  0
  8 11  1  0  0  0  0
 11 12  1  0  0  0  0
 11 13  1  0  0  0  0
 11 14  1  0  0  0  0
 14 15  1  0  0  0  0
 14 16  1  0  0  0  0
 14 17  1  0  0  0  0
 17 18  1  0  0  0  0
 17 19  1  0  0  0  0
 17 20  1  0  0  0  0
M  END
> <VConfSearch Rank>
110

> <Conf_Id>
65

> <Delta U+W>
2.949

> <U+W>
-8.829

> <U>
49.435

> <W>
-58.263

> <W(PB)>
-60.125

> <W(SA)>
1.862

> <Valence>
3.797

> <Coulomb>
45.253

> <VdW>
0.384

> <VdW6>
-5.596

> <VdW12>
5.980

> <Bond>
0.198

> <Angle>
1.369

> <Pdih>
2.230

> <Idih>
0.000

> <Tether>
0.000

$$$$
VeraChem MOL file


 20 19  0  0  0  0  0  0  0  0999 V2000     
   20.5356   17.3052   22.5193 N   0  3  0  0  0  0  0  0  0  0  0  0
   21.3572   16.7127   22.6795 H   0  0  0  0  0  0  0  0  0  0  0  0
   20.3855   17.8565   23.3697 H   0  0  0  0  0  0  0  0  0  0  0  0
   19.7316   16.6781   22.4163 H   0  0  0  0  0  0  0  0  0  0  0  0
   20.7121   18.1974   21.3058 C   0  0  0  0  0  0  0  0  0  0  0  0
   20.8641   17.5401   20.4454 H   0  0  0  0  0  0  0  0  0  0  0  0
   21.6171   18.7961   21.4393 H   0  0  0  0  0  0  0  0  0  0  0  0
   19.5091   19.1213   21.0271 C   0  0  0  0  0  0  0  0  0  0  0  0
   19.5373   19.3939   19.9638 H   0  0  0  0  0  0  0  0  0  0  0  0
   18.5728   18.5652   21.1677 H   0  0  0  0  0  0  0  0  0  0  0  0
   19.4800   20.4360   21.8521 C   0  0  0  0  0  0  0  0  0  0  0  0
   18.6093   21.0156   21.5150 H   0  0  0  0  0  0  0  0  0  0  0  0
   20.3555   21.0524   21.6053 H   0  0  0  0  0  0  0  0  0  0  0  0
   19.3714   20.2568   23.3878 C   0  0  0  0  0  0  0  0  0  0  0  0
   18.7509   21.0692   23.7919 H   0  0  0  0  0  0  0  0  0  0  0  0
   18.8361   19.3288   23.6297 H   0  0  0  0  0  0  0  0  0  0  0  0
   20.7419   20.3082   24.1040 C   0  0  0  0  0  0  0  0  0  0  0  0
   21.4497   19.5718   23.7086 H   0  0  0  0  0  0  0  0  0  0  0  0
   21.2004   21.2991   23.9893 H   0  0  0  0  0  0  0  0  0  0  0  0
   20.6237   20.1218   25.1794 H   0  0  0  0  0  0  0  0  0  0  0  0
  1  2  1  0  0  0  0
  1  3  1  0  0  0  0
  1  4  1  0  0  0  0
  1  5  1  0  0  0  0
  5  6  1  0  0  0  0
  5  7  1  0  0  0  0
  5  8  1  0  0  0  0
  8  9  1  0  0  0  0
  8 10  1  0  0  0  0
  8 11  1  0  0  0  0
 11 12  1  0  0  0  0
 11 13  1  0  0  0  0
 11 14  1  0  0  0  0
 14 15  1  0  0  0  0
 14 16  1  0  0  0  0
 14 17  1  0  0  0  0
 17 18  1  0  0  0  0
 17 19  1  0  0  0  0
 17 20  1  0  0  0  0
M  END
> <VConfSearch Rank>
111

> <Conf_Id>
77

> <Delta U+W>
5.366

> <U+W>
-6.412

> <U>
51.542

> <W>
-57.954

> <W(PB)>
-59.811

> <W(SA)>
1.857

> <Valence>
5.347

> <Coulomb>
45.870

> <VdW>
0.325

> <VdW6>
-6.161

> <VdW12>
6.486

> <Bond>
0.201

> <Angle>
1.484

> <Pdih>
3.662

> <Idih>
0.000

> <Tether>
0.000

$$$$
VeraChem MOL file


 20 19  0  0  0  0  0  0  0  0999 V2000     
   20.7125   17.2555   23.1485 N   0  3  0  0  0  0  0  0  0  0  0  0
   21.7031   17.1477   23.3883 H   0  0  0  0  0  0  0  0  0  0  0  0
   20.3294   17.9860   23.7562 H   0  0  0  0  0  0  0  0  0  0  0  0
   20.2481   16.3756   23.3971 H   0  0  0  0  0  0  0  0  0  0  0  0
   20.5225   17.5988   21.6837 C   0  0  0  0  0  0  0  0  0  0  0  0
   19.4514   17.6372   21.4685 H   0  0  0  0  0  0  0  0  0  0  0  0
   20.9557   16.7787   21.1046 H   0  0  0  0  0  0  0  0  0  0  0  0
   21.1901   18.9225   21.2587 C   0  0  0  0  0  0  0  0  0  0  0  0
   22.1854   19.0006   21.7160 H   0  0  0  0  0  0  0  0  0  0  0  0
   21.3625   18.8763   20.1752 H   0  0  0  0  0  0  0  0  0  0  0  0
   20.3641   20.2038   21.5522 C   0  0  0  0  0  0  0  0  0  0  0  0
   19.4241   20.1817   20.9835 H   0  0  0  0  0  0  0  0  0  0  0  0
   20.9288   21.0571   21.1517 H   0  0  0  0  0  0  0  0  0  0  0  0
   20.0736   20.4810   23.0493 C   0  0  0  0  0  0  0  0  0  0  0  0
   20.8731   20.0678   23.6789 H   0  0  0  0  0  0  0  0  0  0  0  0
   20.0989   21.5673   23.2153 H   0  0  0  0  0  0  0  0  0  0  0  0
   18.6878   19.9657   23.5050 C   0  0  0  0  0  0  0  0  0  0  0  0
   18.5475   20.1328   24.5809 H   0  0  0  0  0  0  0  0  0  0  0  0
   17.8855   20.5010   22.9805 H   0  0  0  0  0  0  0  0  0  0  0  0
   18.5520   18.8969   23.3078 H   0  0  0  0  0  0  0  0  0  0  0  0
  1  2  1  0  0  0  0
  1  3  1  0  0  0  0
  1  4  1  0  0  0  0
  1  5  1  0  0  0  0
  5  6  1  0  0  0  0
  5  7  1  0  0  0  0
  5  8  1  0  0  0  0
  8  9  1  0  0  0  0
  8 10  1  0  0  0  0
  8 11  1  0  0  0  0
 11 12  1  0  0  0  0
 11 13  1  0  0  0  0
 11 14  1  0  0  0  0
 14 15  1  0  0  0  0
 14 16  1  0  0  0  0
 14 17  1  0  0  0  0
 17 18  1  0  0  0  0
 17 19  1  0  0  0  0
 17 20  1  0  0  0  0
M  END
> <VConfSearch Rank>
112

> <Conf_Id>
67

> <Delta U+W>
5.353

> <U+W>
-6.425

> <U>
51.541

> <W>
-57.966

> <W(PB)>
-59.821

> <W(SA)>
1.855

> <Valence>
5.347

> <Coulomb>
45.870

> <VdW>
0.325

> <VdW6>
-6.161

> <VdW12>
6.486

> <Bond>
0.201

> <Angle>
1.485

> <Pdih>
3.662

> <Idih>
0.000

> <Tether>
0.000

$$$$
VeraChem MOL file


 20 19  0  0  0  0  0  0  0  0999 V2000     
   22.0789   21.1190   20.8352 N   0  3  0  0  0  0  0  0  0  0  0  0
   22.8182   20.4468   20.6075 H   0  0  0  0  0  0  0  0  0  0  0  0
   22.0009   21.7570   20.0361 H   0  0  0  0  0  0  0  0  0  0  0  0
   22.4120   21.6760   21.6285 H   0  0  0  0  0  0  0  0  0  0  0  0
   20.7623   20.4324   21.1381 C   0  0  0  0  0  0  0  0  0  0  0  0
   20.4536   19.8849   20.2434 H   0  0  0  0  0  0  0  0  0  0  0  0
   20.0170   21.2062   21.3411 H   0  0  0  0  0  0  0  0  0  0  0  0
   20.8448   19.4665   22.3336 C   0  0  0  0  0  0  0  0  0  0  0  0
   21.6056   18.7006   22.1321 H   0  0  0  0  0  0  0  0  0  0  0  0
   21.1705   20.0173   23.2261 H   0  0  0  0  0  0  0  0  0  0  0  0
   19.4840   18.7885   22.6084 C   0  0  0  0  0  0  0  0  0  0  0  0
   19.1587   18.2427   21.7118 H   0  0  0  0  0  0  0  0  0  0  0  0
   18.7241   19.5578   22.8045 H   0  0  0  0  0  0  0  0  0  0  0  0
   19.5549   17.8160   23.8071 C   0  0  0  0  0  0  0  0  0  0  0  0
   20.3125   17.0435   23.6142 H   0  0  0  0  0  0  0  0  0  0  0  0
   19.8779   18.3585   24.7068 H   0  0  0  0  0  0  0  0  0  0  0  0
   18.1933   17.1411   24.0778 C   0  0  0  0  0  0  0  0  0  0  0  0
   17.8594   16.5617   23.2071 H   0  0  0  0  0  0  0  0  0  0  0  0
   18.2637   16.4548   24.9317 H   0  0  0  0  0  0  0  0  0  0  0  0
   17.4215   17.8870   24.3084 H   0  0  0  0  0  0  0  0  0  0  0  0
  1  2  1  0  0  0  0
  1  3  1  0  0  0  0
  1  4  1  0  0  0  0
  1  5  1  0  0  0  0
  5  6  1  0  0  0  0
  5  7  1  0  0  0  0
  5  8  1  0  0  0  0
  8  9  1  0  0  0  0
  8 10  1  0  0  0  0
  8 11  1  0  0  0  0
 11 12  1  0  0  0  0
 11 13  1  0  0  0  0
 11 14  1  0  0  0  0
 14 15  1  0  0  0  0
 14 16  1  0  0  0  0
 14 17  1  0  0  0  0
 17 18  1  0  0  0  0
 17 19  1  0  0  0  0
 17 20  1  0  0  0  0
M  END
> <VConfSearch Rank>
113

> <Conf_Id>
72

> <Delta U+W>
0.000

> <U+W>
-11.778

> <U>
45.772

> <W>
-57.550

> <W(PB)>
-59.511

> <W(SA)>
1.961

> <Valence>
1.299

> <Coulomb>
44.177

> <VdW>
0.297

> <VdW6>
-3.490

> <VdW12>
3.786

> <Bond>
0.096

> <Angle>
0.381

> <Pdih>
0.822

> <Idih>
0.000

> <Tether>
0.000

$$$$
VeraChem MOL file


 20 19  0  0  0  0  0  0  0  0999 V2000     
   19.1500   20.4534   25.0312 N   0  3  0  0  0  0  0  0  0  0  0  0
   19.8702   21.1795   24.9651 H   0  0  0  0  0  0  0  0  0  0  0  0
   18.2814   20.8564   24.6658 H   0  0  0  0  0  0  0  0  0  0  0  0
   18.9981   20.2756   26.0296 H   0  0  0  0  0  0  0  0  0  0  0  0
   19.5460   19.1931   24.2887 C   0  0  0  0  0  0  0  0  0  0  0  0
   18.7503   18.4560   24.4270 H   0  0  0  0  0  0  0  0  0  0  0  0
   20.4585   18.8033   24.7479 H   0  0  0  0  0  0  0  0  0  0  0  0
   19.7814   19.4249   22.7853 C   0  0  0  0  0  0  0  0  0  0  0  0
   18.8678   19.8312   22.3314 H   0  0  0  0  0  0  0  0  0  0  0  0
   20.5687   20.1787   22.6587 H   0  0  0  0  0  0  0  0  0  0  0  0
   20.1805   18.1136   22.0682 C   0  0  0  0  0  0  0  0  0  0  0  0
   19.4175   17.3489   22.2703 H   0  0  0  0  0  0  0  0  0  0  0  0
   21.1198   17.7313   22.4915 H   0  0  0  0  0  0  0  0  0  0  0  0
   20.3287   18.2682   20.5350 C   0  0  0  0  0  0  0  0  0  0  0  0
   20.5082   17.2766   20.0963 H   0  0  0  0  0  0  0  0  0  0  0  0
   19.3836   18.6276   20.1044 H   0  0  0  0  0  0  0  0  0  0  0  0
   21.4808   19.2118   20.1207 C   0  0  0  0  0  0  0  0  0  0  0  0
   22.4332   18.8902   20.5618 H   0  0  0  0  0  0  0  0  0  0  0  0
   21.6011   19.2151   19.0296 H   0  0  0  0  0  0  0  0  0  0  0  0
   21.2883   20.2455   20.4335 H   0  0  0  0  0  0  0  0  0  0  0  0
  1  2  1  0  0  0  0
  1  3  1  0  0  0  0
  1  4  1  0  0  0  0
  1  5  1  0  0  0  0
  5  6  1  0  0  0  0
  5  7  1  0  0  0  0
  5  8  1  0  0  0  0
  8  9  1  0  0  0  0
  8 10  1  0  0  0  0
  8 11  1  0  0  0  0
 11 12  1  0  0  0  0
 11 13  1  0  0  0  0
 11 14  1  0  0  0  0
 14 15  1  0  0  0  0
 14 16  1  0  0  0  0
 14 17  1  0  0  0  0
 17 18  1  0  0  0  0
 17 19  1  0  0  0  0
 17 20  1  0  0  0  0
M  END
> <VConfSearch Rank>
114

> <Conf_Id>
42

> <Delta U+W>
0.508

> <U+W>
-11.270

> <U>
46.486

> <W>
-57.756

> <W(PB)>
-59.705

> <W(SA)>
1.949

> <Valence>
1.806

> <Coulomb>
44.248

> <VdW>
0.433

> <VdW6>
-4.089

> <VdW12>
4.522

> <Bond>
0.131

> <Angle>
0.628

> <Pdih>
1.047

> <Idih>
0.000

> <Tether>
0.000

$$$$
VeraChem MOL file


 20 19  0  0  0  0  0  0  0  0999 V2000     
   21.5593   21.3711   23.7878 N   0  3  0  0  0  0  0  0  0  0  0  0
   22.0138   21.7454   22.9490 H   0  0  0  0  0  0  0  0  0  0  0  0
   20.6738   21.8747   23.9008 H   0  0  0  0  0  0  0  0  0  0  0  0
   22.1506   21.6271   24.5855 H   0  0  0  0  0  0  0  0  0  0  0  0
   21.3516   19.8726   23.6989 C   0  0  0  0  0  0  0  0  0  0  0  0
   20.8929   19.5393   24.6338 H   0  0  0  0  0  0  0  0  0  0  0  0
   22.3339   19.4005   23.6112 H   0  0  0  0  0  0  0  0  0  0  0  0
   20.4676   19.4535   22.5105 C   0  0  0  0  0  0  0  0  0  0  0  0
   19.4915   19.9467   22.5994 H   0  0  0  0  0  0  0  0  0  0  0  0
   20.9238   19.8040   21.5752 H   0  0  0  0  0  0  0  0  0  0  0  0
   20.2848   17.9183   22.4576 C   0  0  0  0  0  0  0  0  0  0  0  0
   19.7863   17.5730   23.3740 H   0  0  0  0  0  0  0  0  0  0  0  0
   21.2743   17.4404   22.4459 H   0  0  0  0  0  0  0  0  0  0  0  0
   19.4891   17.4331   21.2214 C   0  0  0  0  0  0  0  0  0  0  0  0
   19.9972   17.7559   20.3019 H   0  0  0  0  0  0  0  0  0  0  0  0
   19.4965   16.3342   21.2063 H   0  0  0  0  0  0  0  0  0  0  0  0
   18.0225   17.9214   21.2037 C   0  0  0  0  0  0  0  0  0  0  0  0
   17.9613   19.0115   21.0970 H   0  0  0  0  0  0  0  0  0  0  0  0
   17.4799   17.4770   20.3593 H   0  0  0  0  0  0  0  0  0  0  0  0
   17.4997   17.6356   22.1256 H   0  0  0  0  0  0  0  0  0  0  0  0
  1  2  1  0  0  0  0
  1  3  1  0  0  0  0
  1  4  1  0  0  0  0
  1  5  1  0  0  0  0
  5  6  1  0  0  0  0
  5  7  1  0  0  0  0
  5  8  1  0  0  0  0
  8  9  1  0  0  0  0
  8 10  1  0  0  0  0
  8 11  1  0  0  0  0
 11 12  1  0  0  0  0
 11 13  1  0  0  0  0
 11 14  1  0  0  0  0
 14 15  1  0  0  0  0
 14 16  1  0  0  0  0
 14 17  1  0  0  0  0
 17 18  1  0  0  0  0
 17 19  1  0  0  0  0
 17 20  1  0  0  0  0
M  END
> <VConfSearch Rank>
115

> <Conf_Id>
41

> <Delta U+W>
0.515

> <U+W>
-11.263

> <U>
46.486

> <W>
-57.749

> <W(PB)>
-59.685

> <W(SA)>
1.936

> <Valence>
1.806

> <Coulomb>
44.248

> <VdW>
0.433

> <VdW6>
-4.089

> <VdW12>
4.522

> <Bond>
0.131

> <Angle>
0.628

> <Pdih>
1.047

> <Idih>
0.000

> <Tether>
0.000

$$$$
VeraChem MOL file


 20 19  0  0  0  0  0  0  0  0999 V2000     
   22.7468   18.9324   23.3875 N   0  3  0  0  0  0  0  0  0  0  0  0
   23.7381   18.7078   23.2523 H   0  0  0  0  0  0  0  0  0  0  0  0
   22.6435   19.9377   23.2216 H   0  0  0  0  0  0  0  0  0  0  0  0
   22.5360   18.7654   24.3764 H   0  0  0  0  0  0  0  0  0  0  0  0
   21.8548   18.1141   22.4738 C   0  0  0  0  0  0  0  0  0  0  0  0
   22.0523   17.0582   22.6782 H   0  0  0  0  0  0  0  0  0  0  0  0
   22.1461   18.3203   21.4403 H   0  0  0  0  0  0  0  0  0  0  0  0
   20.3500   18.3948   22.6543 C   0  0  0  0  0  0  0  0  0  0  0  0
   19.7954   17.6749   22.0397 H   0  0  0  0  0  0  0  0  0  0  0  0
   20.0641   18.2036   23.6971 H   0  0  0  0  0  0  0  0  0  0  0  0
   19.9580   19.8388   22.2516 C   0  0  0  0  0  0  0  0  0  0  0  0
   20.2262   20.0153   21.2007 H   0  0  0  0  0  0  0  0  0  0  0  0
   20.5425   20.5550   22.8441 H   0  0  0  0  0  0  0  0  0  0  0  0
   18.4561   20.1510   22.4610 C   0  0  0  0  0  0  0  0  0  0  0  0
   18.1858   19.9891   23.5139 H   0  0  0  0  0  0  0  0  0  0  0  0
   18.2874   21.2186   22.2619 H   0  0  0  0  0  0  0  0  0  0  0  0
   17.5210   19.3224   21.5506 C   0  0  0  0  0  0  0  0  0  0  0  0
   17.5597   18.2542   21.7967 H   0  0  0  0  0  0  0  0  0  0  0  0
   16.4801   19.6498   21.6700 H   0  0  0  0  0  0  0  0  0  0  0  0
   17.7907   19.4425   20.4933 H   0  0  0  0  0  0  0  0  0  0  0  0
  1  2  1  0  0  0  0
  1  3  1  0  0  0  0
  1  4  1  0  0  0  0
  1  5  1  0  0  0  0
  5  6  1  0  0  0  0
  5  7  1  0  0  0  0
  5  8  1  0  0  0  0
  8  9  1  0  0  0  0
  8 10  1  0  0  0  0
  8 11  1  0  0  0  0
 11 12  1  0  0  0  0
 11 13  1  0  0  0  0
 11 14  1  0  0  0  0
 14 15  1  0  0  0  0
 14 16  1  0  0  0  0
 14 17  1  0  0  0  0
 17 18  1  0  0  0  0
 17 19  1  0  0  0  0
 17 20  1  0  0  0  0
M  END
> <VConfSearch Rank>
116

> <Conf_Id>
33

> <Delta U+W>
0.703

> <U+W>
-11.075

> <U>
47.080

> <W>
-58.154

> <W(PB)>
-60.053

> <W(SA)>
1.899

> <Valence>
1.943

> <Coulomb>
44.572

> <VdW>
0.565

> <VdW6>
-4.575

> <VdW12>
5.139

> <Bond>
0.158

> <Angle>
0.700

> <Pdih>
1.085

> <Idih>
0.000

> <Tether>
0.000

$$$$
VeraChem MOL file


 20 19  0  0  0  0  0  0  0  0999 V2000     
   21.7542   17.6850   24.1945 N   0  3  0  0  0  0  0  0  0  0  0  0
   22.2627   16.8340   24.4565 H   0  0  0  0  0  0  0  0  0  0  0  0
   22.2574   18.4733   24.6136 H   0  0  0  0  0  0  0  0  0  0  0  0
   20.8372   17.6358   24.6478 H   0  0  0  0  0  0  0  0  0  0  0  0
   21.6340   17.8276   22.6893 C   0  0  0  0  0  0  0  0  0  0  0  0
   21.1109   16.9477   22.3051 H   0  0  0  0  0  0  0  0  0  0  0  0
   22.6461   17.8287   22.2756 H   0  0  0  0  0  0  0  0  0  0  0  0
   20.8987   19.1055   22.2396 C   0  0  0  0  0  0  0  0  0  0  0  0
   21.4162   19.9867   22.6414 H   0  0  0  0  0  0  0  0  0  0  0  0
   20.9705   19.1703   21.1468 H   0  0  0  0  0  0  0  0  0  0  0  0
   19.4098   19.1217   22.6685 C   0  0  0  0  0  0  0  0  0  0  0  0
   19.3426   19.0199   23.7597 H   0  0  0  0  0  0  0  0  0  0  0  0
   18.8933   18.2495   22.2443 H   0  0  0  0  0  0  0  0  0  0  0  0
   18.6637   20.4145   22.2572 C   0  0  0  0  0  0  0  0  0  0  0  0
   17.6561   20.3940   22.6955 H   0  0  0  0  0  0  0  0  0  0  0  0
   19.1687   21.2892   22.6904 H   0  0  0  0  0  0  0  0  0  0  0  0
   18.5360   20.5925   20.7269 C   0  0  0  0  0  0  0  0  0  0  0  0
   18.0622   19.7166   20.2652 H   0  0  0  0  0  0  0  0  0  0  0  0
   17.9188   21.4696   20.4927 H   0  0  0  0  0  0  0  0  0  0  0  0
   19.5144   20.7438   20.2545 H   0  0  0  0  0  0  0  0  0  0  0  0
  1  2  1  0  0  0  0
  1  3  1  0  0  0  0
  1  4  1  0  0  0  0
  1  5  1  0  0  0  0
  5  6  1  0  0  0  0
  5  7  1  0  0  0  0
  5  8  1  0  0  0  0
  8  9  1  0  0  0  0
  8 10  1  0  0  0  0
  8 11  1  0  0  0  0
 11 12  1  0  0  0  0
 11 13  1  0  0  0  0
 11 14  1  0  0  0  0
 14 15  1  0  0  0  0
 14 16  1  0  0  0  0
 14 17  1  0  0  0  0
 17 18  1  0  0  0  0
 17 19  1  0  0  0  0
 17 20  1  0  0  0  0
M  END
> <VConfSearch Rank>
117

> <Conf_Id>
24

> <Delta U+W>
0.847

> <U+W>
-10.931

> <U>
47.080

> <W>
-58.011

> <W(PB)>
-59.914

> <W(SA)>
1.903

> <Valence>
1.943

> <Coulomb>
44.572

> <VdW>
0.565

> <VdW6>
-4.575

> <VdW12>
5.140

> <Bond>
0.158

> <Angle>
0.700

> <Pdih>
1.085

> <Idih>
0.000

> <Tether>
0.000

$$$$
VeraChem MOL file


 20 19  0  0  0  0  0  0  0  0999 V2000     
   22.8343   19.6178   22.2118 N   0  3  0  0  0  0  0  0  0  0  0  0
   23.4084   19.4194   21.3856 H   0  0  0  0  0  0  0  0  0  0  0  0
   22.7109   20.6344   22.2509 H   0  0  0  0  0  0  0  0  0  0  0  0
   23.3896   19.3501   23.0305 H   0  0  0  0  0  0  0  0  0  0  0  0
   21.5075   18.8874   22.1642 C   0  0  0  0  0  0  0  0  0  0  0  0
   21.7138   17.8159   22.0942 H   0  0  0  0  0  0  0  0  0  0  0  0
   20.9859   19.1974   21.2549 H   0  0  0  0  0  0  0  0  0  0  0  0
   20.6195   19.1647   23.3919 C   0  0  0  0  0  0  0  0  0  0  0  0
   21.1687   18.8886   24.3018 H   0  0  0  0  0  0  0  0  0  0  0  0
   20.4194   20.2410   23.4683 H   0  0  0  0  0  0  0  0  0  0  0  0
   19.2850   18.3788   23.3562 C   0  0  0  0  0  0  0  0  0  0  0  0
   18.7093   18.6130   24.2623 H   0  0  0  0  0  0  0  0  0  0  0  0
   19.5032   17.3030   23.4069 H   0  0  0  0  0  0  0  0  0  0  0  0
   18.4026   18.6504   22.1109 C   0  0  0  0  0  0  0  0  0  0  0  0
   18.9213   18.3232   21.1994 H   0  0  0  0  0  0  0  0  0  0  0  0
   17.4976   18.0308   22.1810 H   0  0  0  0  0  0  0  0  0  0  0  0
   17.9823   20.1308   21.9667 C   0  0  0  0  0  0  0  0  0  0  0  0
   17.2859   20.2527   21.1269 H   0  0  0  0  0  0  0  0  0  0  0  0
   17.4792   20.4887   22.8743 H   0  0  0  0  0  0  0  0  0  0  0  0
   18.8469   20.7782   21.7744 H   0  0  0  0  0  0  0  0  0  0  0  0
  1  2  1  0  0  0  0
  1  3  1  0  0  0  0
  1  4  1  0  0  0  0
  1  5  1  0  0  0  0
  5  6  1  0  0  0  0
  5  7  1  0  0  0  0
  5  8  1  0  0  0  0
  8  9  1  0  0  0  0
  8 10  1  0  0  0  0
  8 11  1  0  0  0  0
 11 12  1  0  0  0  0
 11 13  1  0  0  0  0
 11 14  1  0  0  0  0
 14 15  1  0  0  0  0
 14 16  1  0  0  0  0
 14 17  1  0  0  0  0
 17 18  1  0  0  0  0
 17 19  1  0  0  0  0
 17 20  1  0  0  0  0
M  END
> <VConfSearch Rank>
118

> <Conf_Id>
64

> <Delta U+W>
0.707

> <U+W>
-11.070

> <U>
47.077

> <W>
-58.148

> <W(PB)>
-60.054

> <W(SA)>
1.906

> <Valence>
2.039

> <Coulomb>
44.655

> <VdW>
0.383

> <VdW6>
-4.912

> <VdW12>
5.295

> <Bond>
0.159

> <Angle>
0.856

> <Pdih>
1.024

> <Idih>
0.000

> <Tether>
0.000

$$$$
VeraChem MOL file


 20 19  0  0  0  0  0  0  0  0999 V2000     
   18.8389   20.0968   20.3425 N   0  3  0  0  0  0  0  0  0  0  0  0
   18.3390   19.3988   19.7828 H   0  0  0  0  0  0  0  0  0  0  0  0
   18.1496   20.5388   20.9587 H   0  0  0  0  0  0  0  0  0  0  0  0
   19.1646   20.8204   19.6930 H   0  0  0  0  0  0  0  0  0  0  0  0
   19.9843   19.4827   21.1219 C   0  0  0  0  0  0  0  0  0  0  0  0
   20.4875   20.2852   21.6675 H   0  0  0  0  0  0  0  0  0  0  0  0
   20.6918   19.0580   20.4047 H   0  0  0  0  0  0  0  0  0  0  0  0
   19.5284   18.3909   22.1082 C   0  0  0  0  0  0  0  0  0  0  0  0
   18.8111   18.8140   22.8229 H   0  0  0  0  0  0  0  0  0  0  0  0
   18.9883   17.6108   21.5556 H   0  0  0  0  0  0  0  0  0  0  0  0
   20.7103   17.7377   22.8675 C   0  0  0  0  0  0  0  0  0  0  0  0
   21.3507   17.2119   22.1457 H   0  0  0  0  0  0  0  0  0  0  0  0
   20.3168   16.9641   23.5413 H   0  0  0  0  0  0  0  0  0  0  0  0
   21.5843   18.7240   23.6838 C   0  0  0  0  0  0  0  0  0  0  0  0
   22.3968   18.1589   24.1617 H   0  0  0  0  0  0  0  0  0  0  0  0
   22.0727   19.4434   23.0124 H   0  0  0  0  0  0  0  0  0  0  0  0
   20.7972   19.4837   24.7757 C   0  0  0  0  0  0  0  0  0  0  0  0
   20.2820   18.7861   25.4487 H   0  0  0  0  0  0  0  0  0  0  0  0
   21.4760   20.0962   25.3832 H   0  0  0  0  0  0  0  0  0  0  0  0
   20.0488   20.1563   24.3385 H   0  0  0  0  0  0  0  0  0  0  0  0
  1  2  1  0  0  0  0
  1  3  1  0  0  0  0
  1  4  1  0  0  0  0
  1  5  1  0  0  0  0
  5  6  1  0  0  0  0
  5  7  1  0  0  0  0
  5  8  1  0  0  0  0
  8  9  1  0  0  0  0
  8 10  1  0  0  0  0
  8 11  1  0  0  0  0
 11 12  1  0  0  0  0
 11 13  1  0  0  0  0
 11 14  1  0  0  0  0
 14 15  1  0  0  0  0
 14 16  1  0  0  0  0
 14 17  1  0  0  0  0
 17 18  1  0  0  0  0
 17 19  1  0  0  0  0
 17 20  1  0  0  0  0
M  END
> <VConfSearch Rank>
119

> <Conf_Id>
22

> <Delta U+W>
0.731

> <U+W>
-11.047

> <U>
47.078

> <W>
-58.125

> <W(PB)>
-60.031

> <W(SA)>
1.906

> <Valence>
2.039

> <Coulomb>
44.655

> <VdW>
0.383

> <VdW6>
-4.913

> <VdW12>
5.296

> <Bond>
0.159

> <Angle>
0.856

> <Pdih>
1.024

> <Idih>
0.000

> <Tether>
0.000

$$$$
VeraChem MOL file


 20 19  0  0  0  0  0  0  0  0999 V2000     
   17.9400   20.4524   21.4857 N   0  3  0  0  0  0  0  0  0  0  0  0
   17.7758   21.1885   22.1796 H   0  0  0  0  0  0  0  0  0  0  0  0
   18.1145   20.9172   20.5892 H   0  0  0  0  0  0  0  0  0  0  0  0
   17.0598   19.9358   21.3861 H   0  0  0  0  0  0  0  0  0  0  0  0
   19.0849   19.5431   21.8847 C   0  0  0  0  0  0  0  0  0  0  0  0
   19.1857   18.7699   21.1184 H   0  0  0  0  0  0  0  0  0  0  0  0
   18.8144   19.0642   22.8285 H   0  0  0  0  0  0  0  0  0  0  0  0
   20.4207   20.2899   22.0480 C   0  0  0  0  0  0  0  0  0  0  0  0
   20.6189   20.8631   21.1326 H   0  0  0  0  0  0  0  0  0  0  0  0
   20.3323   21.0237   22.8601 H   0  0  0  0  0  0  0  0  0  0  0  0
   21.6314   19.3603   22.3164 C   0  0  0  0  0  0  0  0  0  0  0  0
   22.5336   19.9876   22.3233 H   0  0  0  0  0  0  0  0  0  0  0  0
   21.7638   18.6597   21.4803 H   0  0  0  0  0  0  0  0  0  0  0  0
   21.5758   18.5868   23.6594 C   0  0  0  0  0  0  0  0  0  0  0  0
   22.6065   18.3932   23.9886 H   0  0  0  0  0  0  0  0  0  0  0  0
   21.1222   19.2120   24.4411 H   0  0  0  0  0  0  0  0  0  0  0  0
   20.8454   17.2262   23.5696 C   0  0  0  0  0  0  0  0  0  0  0  0
   19.7821   17.3398   23.3340 H   0  0  0  0  0  0  0  0  0  0  0  0
   21.2982   16.5862   22.8012 H   0  0  0  0  0  0  0  0  0  0  0  0
   20.9128   16.6931   24.5268 H   0  0  0  0  0  0  0  0  0  0  0  0
  1  2  1  0  0  0  0
  1  3  1  0  0  0  0
  1  4  1  0  0  0  0
  1  5  1  0  0  0  0
  5  6  1  0  0  0  0
  5  7  1  0  0  0  0
  5  8  1  0  0  0  0
  8  9  1  0  0  0  0
  8 10  1  0  0  0  0
  8 11  1  0  0  0  0
 11 12  1  0  0  0  0
 11 13  1  0  0  0  0
 11 14  1  0  0  0  0
 14 15  1  0  0  0  0
 14 16  1  0  0  0  0
 14 17  1  0  0  0  0
 17 18  1  0  0  0  0
 17 19  1  0  0  0  0
 17 20  1  0  0  0  0
M  END
> <VConfSearch Rank>
120

> <Conf_Id>
61

> <Delta U+W>
2.669

> <U+W>
-9.108

> <U>
48.916

> <W>
-58.025

> <W(PB)>
-59.935

> <W(SA)>
1.911

> <Valence>
3.785

> <Coulomb>
44.716

> <VdW>
0.415

> <VdW6>
-4.836

> <VdW12>
5.251

> <Bond>
0.175

> <Angle>
1.195

> <Pdih>
2.415

> <Idih>
0.000

> <Tether>
0.000

$$$$
VeraChem MOL file


 20 19  0  0  0  0  0  0  0  0999 V2000     
   18.7592   17.6762   21.2039 N   0  3  0  0  0  0  0  0  0  0  0  0
   18.2569   17.5676   20.3165 H   0  0  0  0  0  0  0  0  0  0  0  0
   18.4847   16.8879   21.7984 H   0  0  0  0  0  0  0  0  0  0  0  0
   18.4046   18.5272   21.6478 H   0  0  0  0  0  0  0  0  0  0  0  0
   20.2609   17.7282   20.9966 C   0  0  0  0  0  0  0  0  0  0  0  0
   20.4901   18.5489   20.3115 H   0  0  0  0  0  0  0  0  0  0  0  0
   20.5473   16.7919   20.5099 H   0  0  0  0  0  0  0  0  0  0  0  0
   21.0775   17.8871   22.2964 C   0  0  0  0  0  0  0  0  0  0  0  0
   20.6642   17.2408   23.0821 H   0  0  0  0  0  0  0  0  0  0  0  0
   22.0912   17.5124   22.1013 H   0  0  0  0  0  0  0  0  0  0  0  0
   21.2011   19.3461   22.8060 C   0  0  0  0  0  0  0  0  0  0  0  0
   21.6696   19.9667   22.0295 H   0  0  0  0  0  0  0  0  0  0  0  0
   21.8925   19.3523   23.6600 H   0  0  0  0  0  0  0  0  0  0  0  0
   19.8634   19.9886   23.2421 C   0  0  0  0  0  0  0  0  0  0  0  0
   19.2124   20.1304   22.3704 H   0  0  0  0  0  0  0  0  0  0  0  0
   19.3375   19.3208   23.9388 H   0  0  0  0  0  0  0  0  0  0  0  0
   20.0847   21.3587   23.9181 C   0  0  0  0  0  0  0  0  0  0  0  0
   19.1261   21.8052   24.2126 H   0  0  0  0  0  0  0  0  0  0  0  0
   20.7005   21.2595   24.8214 H   0  0  0  0  0  0  0  0  0  0  0  0
   20.5869   22.0583   23.2372 H   0  0  0  0  0  0  0  0  0  0  0  0
  1  2  1  0  0  0  0
  1  3  1  0  0  0  0
  1  4  1  0  0  0  0
  1  5  1  0  0  0  0
  5  6  1  0  0  0  0
  5  7  1  0  0  0  0
  5  8  1  0  0  0  0
  8  9  1  0  0  0  0
  8 10  1  0  0  0  0
  8 11  1  0  0  0  0
 11 12  1  0  0  0  0
 11 13  1  0  0  0  0
 11 14  1  0  0  0  0
 14 15  1  0  0  0  0
 14 16  1  0  0  0  0
 14 17  1  0  0  0  0
 17 18  1  0  0  0  0
 17 19  1  0  0  0  0
 17 20  1  0  0  0  0
M  END
> <VConfSearch Rank>
121

> <Conf_Id>
69

> <Delta U+W>
2.811

> <U+W>
-8.967

> <U>
49.216

> <W>
-58.183

> <W(PB)>
-60.064

> <W(SA)>
1.881

> <Valence>
2.929

> <Coulomb>
46.006

> <VdW>
0.281

> <VdW6>
-4.909

> <VdW12>
5.190

> <Bond>
0.156

> <Angle>
0.974

> <Pdih>
1.799

> <Idih>
0.000

> <Tether>
0.000

$$$$
VeraChem MOL file


 20 19  0  0  0  0  0  0  0  0999 V2000     
   19.0339   20.7475   21.1296 N   0  3  0  0  0  0  0  0  0  0  0  0
   19.0874   19.7689   20.8357 H   0  0  0  0  0  0  0  0  0  0  0  0
   18.0934   20.8990   21.5075 H   0  0  0  0  0  0  0  0  0  0  0  0
   19.1092   21.3209   20.2827 H   0  0  0  0  0  0  0  0  0  0  0  0
   20.1094   21.0955   22.1409 C   0  0  0  0  0  0  0  0  0  0  0  0
   19.9848   22.1538   22.3861 H   0  0  0  0  0  0  0  0  0  0  0  0
   21.0869   20.9715   21.6671 H   0  0  0  0  0  0  0  0  0  0  0  0
   20.0496   20.2695   23.4430 C   0  0  0  0  0  0  0  0  0  0  0  0
   20.5620   20.8440   24.2262 H   0  0  0  0  0  0  0  0  0  0  0  0
   19.0085   20.1681   23.7772 H   0  0  0  0  0  0  0  0  0  0  0  0
   20.7272   18.8778   23.3554 C   0  0  0  0  0  0  0  0  0  0  0  0
   20.7268   18.4337   24.3606 H   0  0  0  0  0  0  0  0  0  0  0  0
   21.7830   19.0015   23.0770 H   0  0  0  0  0  0  0  0  0  0  0  0
   20.0471   17.8938   22.3748 C   0  0  0  0  0  0  0  0  0  0  0  0
   18.9684   17.8474   22.5799 H   0  0  0  0  0  0  0  0  0  0  0  0
   20.1692   18.2466   21.3430 H   0  0  0  0  0  0  0  0  0  0  0  0
   20.6485   16.4762   22.4837 C   0  0  0  0  0  0  0  0  0  0  0  0
   20.5134   16.0655   23.4928 H   0  0  0  0  0  0  0  0  0  0  0  0
   20.1621   15.7931   21.7753 H   0  0  0  0  0  0  0  0  0  0  0  0
   21.7231   16.4849   22.2592 H   0  0  0  0  0  0  0  0  0  0  0  0
  1  2  1  0  0  0  0
  1  3  1  0  0  0  0
  1  4  1  0  0  0  0
  1  5  1  0  0  0  0
  5  6  1  0  0  0  0
  5  7  1  0  0  0  0
  5  8  1  0  0  0  0
  8  9  1  0  0  0  0
  8 10  1  0  0  0  0
  8 11  1  0  0  0  0
 11 12  1  0  0  0  0
 11 13  1  0  0  0  0
 11 14  1  0  0  0  0
 14 15  1  0  0  0  0
 14 16  1  0  0  0  0
 14 17  1  0  0  0  0
 17 18  1  0  0  0  0
 17 19  1  0  0  0  0
 17 20  1  0  0  0  0
M  END
> <VConfSearch Rank>
122

> <Conf_Id>
26

> <Delta U+W>
2.809

> <U+W>
-8.969

> <U>
49.216

> <W>
-58.185

> <W(PB)>
-60.088

> <W(SA)>
1.903

> <Valence>
2.929

> <Coulomb>
46.006

> <VdW>
0.281

> <VdW6>
-4.909

> <VdW12>
5.190

> <Bond>
0.156

> <Angle>
0.974

> <Pdih>
1.799

> <Idih>
0.000

> <Tether>
0.000

$$$$
VeraChem MOL file


 20 19  0  0  0  0  0  0  0  0999 V2000     
   19.0269   18.4119   24.4777 N   0  3  0  0  0  0  0  0  0  0  0  0
   19.6474   17.6573   24.1704 H   0  0  0  0  0  0  0  0  0  0  0  0
   19.3907   18.7583   25.3708 H   0  0  0  0  0  0  0  0  0  0  0  0
   18.1129   17.9895   24.6716 H   0  0  0  0  0  0  0  0  0  0  0  0
   18.9299   19.5152   23.4423 C   0  0  0  0  0  0  0  0  0  0  0  0
   18.2317   20.2667   23.8208 H   0  0  0  0  0  0  0  0  0  0  0  0
   18.5064   19.0884   22.5294 H   0  0  0  0  0  0  0  0  0  0  0  0
   20.2812   20.1867   23.1238 C   0  0  0  0  0  0  0  0  0  0  0  0
   20.1081   21.0179   22.4285 H   0  0  0  0  0  0  0  0  0  0  0  0
   20.6813   20.6411   24.0399 H   0  0  0  0  0  0  0  0  0  0  0  0
   21.3400   19.2216   22.5284 C   0  0  0  0  0  0  0  0  0  0  0  0
   21.6303   18.4857   23.2902 H   0  0  0  0  0  0  0  0  0  0  0  0
   22.2519   19.7920   22.3043 H   0  0  0  0  0  0  0  0  0  0  0  0
   20.8886   18.4696   21.2502 C   0  0  0  0  0  0  0  0  0  0  0  0
   21.7015   17.8029   20.9301 H   0  0  0  0  0  0  0  0  0  0  0  0
   20.0342   17.8168   21.4747 H   0  0  0  0  0  0  0  0  0  0  0  0
   20.5279   19.4121   20.0796 C   0  0  0  0  0  0  0  0  0  0  0  0
   21.3609   20.0877   19.8457 H   0  0  0  0  0  0  0  0  0  0  0  0
   20.3018   18.8328   19.1751 H   0  0  0  0  0  0  0  0  0  0  0  0
   19.6452   20.0213   20.3103 H   0  0  0  0  0  0  0  0  0  0  0  0
  1  2  1  0  0  0  0
  1  3  1  0  0  0  0
  1  4  1  0  0  0  0
  1  5  1  0  0  0  0
  5  6  1  0  0  0  0
  5  7  1  0  0  0  0
  5  8  1  0  0  0  0
  8  9  1  0  0  0  0
  8 10  1  0  0  0  0
  8 11  1  0  0  0  0
 11 12  1  0  0  0  0
 11 13  1  0  0  0  0
 11 14  1  0  0  0  0
 14 15  1  0  0  0  0
 14 16  1  0  0  0  0
 14 17  1  0  0  0  0
 17 18  1  0  0  0  0
 17 19  1  0  0  0  0
 17 20  1  0  0  0  0
M  END
> <VConfSearch Rank>
123

> <Conf_Id>
2

> <Delta U+W>
0.994

> <U+W>
-10.784

> <U>
47.562

> <W>
-58.346

> <W(PB)>
-60.221

> <W(SA)>
1.875

> <Valence>
2.149

> <Coulomb>
45.034

> <VdW>
0.378

> <VdW6>
-5.599

> <VdW12>
5.977

> <Bond>
0.185

> <Angle>
0.935

> <Pdih>
1.028

> <Idih>
0.000

> <Tether>
0.000

$$$$
VeraChem MOL file


 20 19  0  0  0  0  0  0  0  0999 V2000     
   21.7306   20.0341   24.0511 N   0  3  0  0  0  0  0  0  0  0  0  0
   22.6086   19.5290   24.2063 H   0  0  0  0  0  0  0  0  0  0  0  0
   21.8334   20.5582   23.1772 H   0  0  0  0  0  0  0  0  0  0  0  0
   21.6447   20.7223   24.8062 H   0  0  0  0  0  0  0  0  0  0  0  0
   20.5407   19.0954   24.0057 C   0  0  0  0  0  0  0  0  0  0  0  0
   19.6380   19.6971   23.8717 H   0  0  0  0  0  0  0  0  0  0  0  0
   20.4739   18.5953   24.9757 H   0  0  0  0  0  0  0  0  0  0  0  0
   20.6296   18.0358   22.8887 C   0  0  0  0  0  0  0  0  0  0  0  0
   21.5209   17.4156   23.0520 H   0  0  0  0  0  0  0  0  0  0  0  0
   19.7722   17.3564   22.9766 H   0  0  0  0  0  0  0  0  0  0  0  0
   20.6774   18.6314   21.4570 C   0  0  0  0  0  0  0  0  0  0  0  0
   20.7058   17.8065   20.7318 H   0  0  0  0  0  0  0  0  0  0  0  0
   21.6205   19.1777   21.3219 H   0  0  0  0  0  0  0  0  0  0  0  0
   19.4971   19.5726   21.1044 C   0  0  0  0  0  0  0  0  0  0  0  0
   19.5069   20.4559   21.7572 H   0  0  0  0  0  0  0  0  0  0  0  0
   19.6434   19.9509   20.0830 H   0  0  0  0  0  0  0  0  0  0  0  0
   18.1168   18.8820   21.1864 C   0  0  0  0  0  0  0  0  0  0  0  0
   17.8746   18.5868   22.2149 H   0  0  0  0  0  0  0  0  0  0  0  0
   17.3260   19.5614   20.8432 H   0  0  0  0  0  0  0  0  0  0  0  0
   18.0860   17.9849   20.5546 H   0  0  0  0  0  0  0  0  0  0  0  0
  1  2  1  0  0  0  0
  1  3  1  0  0  0  0
  1  4  1  0  0  0  0
  1  5  1  0  0  0  0
  5  6  1  0  0  0  0
  5  7  1  0  0  0  0
  5  8  1  0  0  0  0
  8  9  1  0  0  0  0
  8 10  1  0  0  0  0
  8 11  1  0  0  0  0
 11 12  1  0  0  0  0
 11 13  1  0  0  0  0
 11 14  1  0  0  0  0
 14 15  1  0  0  0  0
 14 16  1  0  0  0  0
 14 17  1  0  0  0  0
 17 18  1  0  0  0  0
 17 19  1  0  0  0  0
 17 20  1  0  0  0  0
M  END
> <VConfSearch Rank>
124

> <Conf_Id>
1

> <Delta U+W>
1.032

> <U+W>
-10.746

> <U>
47.562

> <W>
-58.308

> <W(PB)>
-60.184

> <W(SA)>
1.877

> <Valence>
2.149

> <Coulomb>
45.035

> <VdW>
0.378

> <VdW6>
-5.599

> <VdW12>
5.978

> <Bond>
0.185

> <Angle>
0.935

> <Pdih>
1.028

> <Idih>
0.000

> <Tether>
0.000

$$$$
VeraChem MOL file


 20 19  0  0  0  0  0  0  0  0999 V2000     
   20.9817   19.0086   24.6965 N   0  3  0  0  0  0  0  0  0  0  0  0
   20.9051   18.1195   25.2002 H   0  0  0  0  0  0  0  0  0  0  0  0
   21.7976   18.9389   24.0815 H   0  0  0  0  0  0  0  0  0  0  0  0
   21.1935   19.7293   25.3944 H   0  0  0  0  0  0  0  0  0  0  0  0
   19.7179   19.3292   23.9219 C   0  0  0  0  0  0  0  0  0  0  0  0
   19.8565   20.2973   23.4382 H   0  0  0  0  0  0  0  0  0  0  0  0
   18.9051   19.4288   24.6465 H   0  0  0  0  0  0  0  0  0  0  0  0
   19.3369   18.2570   22.8788 C   0  0  0  0  0  0  0  0  0  0  0  0
   19.2168   17.2996   23.4031 H   0  0  0  0  0  0  0  0  0  0  0  0
   18.3512   18.4940   22.4571 H   0  0  0  0  0  0  0  0  0  0  0  0
   20.3646   18.0745   21.7296 C   0  0  0  0  0  0  0  0  0  0  0  0
   20.2311   17.0652   21.3161 H   0  0  0  0  0  0  0  0  0  0  0  0
   21.3902   18.0967   22.1198 H   0  0  0  0  0  0  0  0  0  0  0  0
   20.2225   19.0779   20.5561 C   0  0  0  0  0  0  0  0  0  0  0  0
   20.9360   18.7922   19.7705 H   0  0  0  0  0  0  0  0  0  0  0  0
   19.2241   18.9837   20.1066 H   0  0  0  0  0  0  0  0  0  0  0  0
   20.4773   20.5531   20.9367 C   0  0  0  0  0  0  0  0  0  0  0  0
   21.4177   20.6655   21.4914 H   0  0  0  0  0  0  0  0  0  0  0  0
   20.5445   21.1741   20.0341 H   0  0  0  0  0  0  0  0  0  0  0  0
   19.6588   20.9558   21.5450 H   0  0  0  0  0  0  0  0  0  0  0  0
  1  2  1  0  0  0  0
  1  3  1  0  0  0  0
  1  4  1  0  0  0  0
  1  5  1  0  0  0  0
  5  6  1  0  0  0  0
  5  7  1  0  0  0  0
  5  8  1  0  0  0  0
  8  9  1  0  0  0  0
  8 10  1  0  0  0  0
  8 11  1  0  0  0  0
 11 12  1  0  0  0  0
 11 13  1  0  0  0  0
 11 14  1  0  0  0  0
 14 15  1  0  0  0  0
 14 16  1  0  0  0  0
 14 17  1  0  0  0  0
 17 18  1  0  0  0  0
 17 19  1  0  0  0  0
 17 20  1  0  0  0  0
M  END
> <VConfSearch Rank>
125

> <Conf_Id>
80

> <Delta U+W>
2.920

> <U+W>
-8.857

> <U>
49.434

> <W>
-58.292

> <W(PB)>
-60.170

> <W(SA)>
1.879

> <Valence>
3.798

> <Coulomb>
45.253

> <VdW>
0.384

> <VdW6>
-5.595

> <VdW12>
5.979

> <Bond>
0.198

> <Angle>
1.368

> <Pdih>
2.231

> <Idih>
0.000

> <Tether>
0.000

$$$$
VeraChem MOL file


 20 19  0  0  0  0  0  0  0  0999 V2000     
   21.3637   20.6377   23.9096 N   0  3  0  0  0  0  0  0  0  0  0  0
   20.9339   21.5309   24.1695 H   0  0  0  0  0  0  0  0  0  0  0  0
   22.1613   20.4967   24.5383 H   0  0  0  0  0  0  0  0  0  0  0  0
   21.7433   20.7478   22.9650 H   0  0  0  0  0  0  0  0  0  0  0  0
   20.3745   19.4909   23.9893 C   0  0  0  0  0  0  0  0  0  0  0  0
   20.0484   19.4103   25.0298 H   0  0  0  0  0  0  0  0  0  0  0  0
   20.9035   18.5721   23.7315 H   0  0  0  0  0  0  0  0  0  0  0  0
   19.1371   19.6707   23.0841 C   0  0  0  0  0  0  0  0  0  0  0  0
   18.4137   18.8719   23.2943 H   0  0  0  0  0  0  0  0  0  0  0  0
   18.6406   20.6079   23.3685 H   0  0  0  0  0  0  0  0  0  0  0  0
   19.4448   19.7072   21.5628 C   0  0  0  0  0  0  0  0  0  0  0  0
   20.3418   20.3074   21.3633 H   0  0  0  0  0  0  0  0  0  0  0  0
   18.6212   20.2383   21.0657 H   0  0  0  0  0  0  0  0  0  0  0  0
   19.5754   18.3185   20.8857 C   0  0  0  0  0  0  0  0  0  0  0  0
   18.6379   17.7577   21.0062 H   0  0  0  0  0  0  0  0  0  0  0  0
   19.6984   18.4729   19.8045 H   0  0  0  0  0  0  0  0  0  0  0  0
   20.7553   17.4623   21.3961 C   0  0  0  0  0  0  0  0  0  0  0  0
   20.5691   17.0894   22.4101 H   0  0  0  0  0  0  0  0  0  0  0  0
   20.8981   16.5857   20.7509 H   0  0  0  0  0  0  0  0  0  0  0  0
   21.6923   18.0340   21.3966 H   0  0  0  0  0  0  0  0  0  0  0  0
  1  2  1  0  0  0  0
  1  3  1  0  0  0  0
  1  4  1  0  0  0  0
  1  5  1  0  0  0  0
  5  6  1  0  0  0  0
  5  7  1  0  0  0  0
  5  8  1  0  0  0  0
  8  9  1  0  0  0  0
  8 10  1  0  0  0  0
  8 11  1  0  0  0  0
 11 12  1  0  0  0  0
 11 13  1  0  0  0  0
 11 14  1  0  0  0  0
 14 15  1  0  0  0  0
 14 16  1  0  0  0  0
 14 17  1  0  0  0  0
 17 18  1  0  0  0  0
 17 19  1  0  0  0  0
 17 20  1  0  0  0  0
M  END
> <VConfSearch Rank>
126

> <Conf_Id>
65

> <Delta U+W>
2.949

> <U+W>
-8.829

> <U>
49.435

> <W>
-58.263

> <W(PB)>
-60.125

> <W(SA)>
1.862

> <Valence>
3.797

> <Coulomb>
45.253

> <VdW>
0.384

> <VdW6>
-5.596

> <VdW12>
5.980

> <Bond>
0.198

> <Angle>
1.369

> <Pdih>
2.230

> <Idih>
0.000

> <Tether>
0.000

$$$$
VeraChem MOL file


 20 19  0  0  0  0  0  0  0  0999 V2000     
   21.9493   19.5426   21.8060 N   0  3  0  0  0  0  0  0  0  0  0  0
   22.7466   20.1435   22.0407 H   0  0  0  0  0  0  0  0  0  0  0  0
   21.7548   18.9587   22.6251 H   0  0  0  0  0  0  0  0  0  0  0  0
   22.2576   18.9191   21.0532 H   0  0  0  0  0  0  0  0  0  0  0  0
   20.7325   20.3526   21.4027 C   0  0  0  0  0  0  0  0  0  0  0  0
   21.0174   20.9429   20.5276 H   0  0  0  0  0  0  0  0  0  0  0  0
   20.4872   21.0442   22.2130 H   0  0  0  0  0  0  0  0  0  0  0  0
   19.4981   19.4970   21.0526 C   0  0  0  0  0  0  0  0  0  0  0  0
   18.8497   20.0978   20.4011 H   0  0  0  0  0  0  0  0  0  0  0  0
   19.8046   18.6308   20.4512 H   0  0  0  0  0  0  0  0  0  0  0  0
   18.6494   19.0325   22.2666 C   0  0  0  0  0  0  0  0  0  0  0  0
   17.7821   18.4861   21.8708 H   0  0  0  0  0  0  0  0  0  0  0  0
   18.2327   19.9054   22.7880 H   0  0  0  0  0  0  0  0  0  0  0  0
   19.3788   18.1087   23.2751 C   0  0  0  0  0  0  0  0  0  0  0  0
   18.6586   17.3725   23.6593 H   0  0  0  0  0  0  0  0  0  0  0  0
   20.1565   17.5230   22.7669 H   0  0  0  0  0  0  0  0  0  0  0  0
   19.9642   18.8734   24.4861 C   0  0  0  0  0  0  0  0  0  0  0  0
   20.6428   19.6787   24.1855 H   0  0  0  0  0  0  0  0  0  0  0  0
   19.1607   19.3260   25.0817 H   0  0  0  0  0  0  0  0  0  0  0  0
   20.5180   18.1907   25.1438 H   0  0  0  0  0  0  0  0  0  0  0  0
  1  2  1  0  0  0  0
  1  3  1  0  0  0  0
  1  4  1  0  0  0  0
  1  5  1  0  0  0  0
  5  6  1  0  0  0  0
  5  7  1  0  0  0  0
  5  8  1  0  0  0  0
  8  9  1  0  0  0  0
  8 10  1  0  0  0  0
  8 11  1  0  0  0  0
 11 12  1  0  0  0  0
 11 13  1  0  0  0  0
 11 14  1  0  0  0  0
 14 15  1  0  0  0  0
 14 16  1  0  0  0  0
 14 17  1  0  0  0  0
 17 18  1  0  0  0  0
 17 19  1  0  0  0  0
 17 20  1  0  0  0  0
M  END
> <VConfSearch Rank>
127

> <Conf_Id>
77

> <Delta U+W>
5.366

> <U+W>
-6.412

> <U>
51.542

> <W>
-57.954

> <W(PB)>
-59.811

> <W(SA)>
1.857

> <Valence>
5.347

> <Coulomb>
45.870

> <VdW>
0.325

> <VdW6>
-6.161

> <VdW12>
6.486

> <Bond>
0.201

> <Angle>
1.484

> <Pdih>
3.662

> <Idih>
0.000

> <Tether>
0.000

$$$$
VeraChem MOL file


 20 19  0  0  0  0  0  0  0  0999 V2000     
   20.4086   17.0803   22.6654 N   0  3  0  0  0  0  0  0  0  0  0  0
   20.8215   16.5958   21.8622 H   0  0  0  0  0  0  0  0  0  0  0  0
   21.1093   17.7400   23.0167 H   0  0  0  0  0  0  0  0  0  0  0  0
   20.2593   16.3749   23.3946 H   0  0  0  0  0  0  0  0  0  0  0  0
   19.1200   17.7882   22.2937 C   0  0  0  0  0  0  0  0  0  0  0  0
   18.6900   18.2306   23.1962 H   0  0  0  0  0  0  0  0  0  0  0  0
   18.4292   17.0233   21.9286 H   0  0  0  0  0  0  0  0  0  0  0  0
   19.2904   18.8713   21.2092 C   0  0  0  0  0  0  0  0  0  0  0  0
   19.9628   18.5063   20.4216 H   0  0  0  0  0  0  0  0  0  0  0  0
   18.3152   19.0154   20.7256 H   0  0  0  0  0  0  0  0  0  0  0  0
   19.7715   20.2541   21.7254 C   0  0  0  0  0  0  0  0  0  0  0  0
   19.0262   20.6770   22.4133 H   0  0  0  0  0  0  0  0  0  0  0  0
   19.7952   20.9359   20.8640 H   0  0  0  0  0  0  0  0  0  0  0  0
   21.1735   20.2677   22.3864 C   0  0  0  0  0  0  0  0  0  0  0  0
   21.8079   19.4800   21.9583 H   0  0  0  0  0  0  0  0  0  0  0  0
   21.6698   21.2156   22.1347 H   0  0  0  0  0  0  0  0  0  0  0  0
   21.1193   20.1578   23.9287 C   0  0  0  0  0  0  0  0  0  0  0  0
   22.1324   20.1152   24.3495 H   0  0  0  0  0  0  0  0  0  0  0  0
   20.6191   21.0345   24.3607 H   0  0  0  0  0  0  0  0  0  0  0  0
   20.5745   19.2699   24.2672 H   0  0  0  0  0  0  0  0  0  0  0  0
  1  2  1  0  0  0  0
  1  3  1  0  0  0  0
  1  4  1  0  0  0  0
  1  5  1  0  0  0  0
  5  6  1  0  0  0  0
  5  7  1  0  0  0  0
  5  8  1  0  0  0  0
  8  9  1  0  0  0  0
  8 10  1  0  0  0  0
  8 11  1  0  0  0  0
 11 12  1  0  0  0  0
 11 13  1  0  0  0  0
 11 14  1  0  0  0  0
 14 15  1  0  0  0  0
 14 16  1  0  0  0  0
 14 17  1  0  0  0  0
 17 18  1  0  0  0  0
 17 19  1  0  0  0  0
 17 20  1  0  0  0  0
M  END
> <VConfSearch Rank>
128

> <Conf_Id>
67

> <Delta U+W>
5.353

> <U+W>
-6.425

> <U>
51.541

> <W>
-57.966

> <W(PB)>
-59.821

> <W(SA)>
1.855

> <Valence>
5.347

> <Coulomb>
45.870

> <VdW>
0.325

> <VdW6>
-6.161

> <VdW12>
6.486

> <Bond>
0.201

> <Angle>
1.485

> <Pdih>
3.662

> <Idih>
0.000

> <Tether>
0.000

$$$$
VeraChem MOL file


 20 19  0  0  0  0  0  0  0  0999 V2000     
   23.0854   20.3857   22.8440 N   0  3  0  0  0  0  0  0  0  0  0  0
   23.3838   20.3491   21.8642 H   0  0  0  0  0  0  0  0  0  0  0  0
   23.4948   21.2349   23.2478 H   0  0  0  0  0  0  0  0  0  0  0  0
   23.5210   19.5902   23.3214 H   0  0  0  0  0  0  0  0  0  0  0  0
   21.5760   20.3697   22.9778 C   0  0  0  0  0  0  0  0  0  0  0  0
   21.1831   21.2572   22.4744 H   0  0  0  0  0  0  0  0  0  0  0  0
   21.3306   20.4412   24.0409 H   0  0  0  0  0  0  0  0  0  0  0  0
   20.9292   19.1069   22.3808 C   0  0  0  0  0  0  0  0  0  0  0  0
   21.1914   19.0306   21.3171 H   0  0  0  0  0  0  0  0  0  0  0  0
   21.3384   18.2174   22.8782 H   0  0  0  0  0  0  0  0  0  0  0  0
   19.3925   19.1301   22.5375 C   0  0  0  0  0  0  0  0  0  0  0  0
   18.9870   20.0240   22.0433 H   0  0  0  0  0  0  0  0  0  0  0  0
   19.1337   19.2117   23.6025 H   0  0  0  0  0  0  0  0  0  0  0  0
   18.7320   17.8668   21.9415 C   0  0  0  0  0  0  0  0  0  0  0  0
   18.9866   17.7824   20.8756 H   0  0  0  0  0  0  0  0  0  0  0  0
   19.1332   16.9702   22.4346 H   0  0  0  0  0  0  0  0  0  0  0  0
   17.1968   17.8943   22.1003 C   0  0  0  0  0  0  0  0  0  0  0  0
   16.7621   18.7624   21.5876 H   0  0  0  0  0  0  0  0  0  0  0  0
   16.7463   16.9898   21.6713 H   0  0  0  0  0  0  0  0  0  0  0  0
   16.9099   17.9436   23.1588 H   0  0  0  0  0  0  0  0  0  0  0  0
  1  2  1  0  0  0  0
  1  3  1  0  0  0  0
  1  4  1  0  0  0  0
  1  5  1  0  0  0  0
  5  6  1  0  0  0  0
  5  7  1  0  0  0  0
  5  8  1  0  0  0  0
  8  9  1  0  0  0  0
  8 10  1  0  0  0  0
  8 11  1  0  0  0  0
 11 12  1  0  0  0  0
 11 13  1  0  0  0  0
 11 14  1  0  0  0  0
 14 15  1  0  0  0  0
 14 16  1  0  0  0  0
 14 17  1  0  0  0  0
 17 18  1  0  0  0  0
 17 19  1  0  0  0  0
 17 20  1  0  0  0  0
M  END
> <VConfSearch Rank>
129

> <Conf_Id>
72

> <Delta U+W>
0.000

> <U+W>
-11.778

> <U>
45.772

> <W>
-57.550

> <W(PB)>
-59.511

> <W(SA)>
1.961

> <Valence>
1.299

> <Coulomb>
44.177

> <VdW>
0.297

> <VdW6>
-3.490

> <VdW12>
3.786

> <Bond>
0.096

> <Angle>
0.381

> <Pdih>
0.822

> <Idih>
0.000

> <Tether>
0.000

$$$$
VeraChem MOL file


 20 19  0  0  0  0  0  0  0  0999 V2000     
   18.7114   18.4779   25.0519 N   0  3  0  0  0  0  0  0  0  0  0  0
   18.5529   19.4678   25.2644 H   0  0  0  0  0  0  0  0  0  0  0  0
   17.8445   18.1149   24.6430 H   0  0  0  0  0  0  0  0  0  0  0  0
   18.8403   17.9983   25.9491 H   0  0  0  0  0  0  0  0  0  0  0  0
   19.8987   18.2788   24.1315 C   0  0  0  0  0  0  0  0  0  0  0  0
   20.0267   17.2044   23.9736 H   0  0  0  0  0  0  0  0  0  0  0  0
   20.7883   18.6592   24.6408 H   0  0  0  0  0  0  0  0  0  0  0  0
   19.7374   18.9861   22.7739 C   0  0  0  0  0  0  0  0  0  0  0  0
   18.8344   18.6126   22.2730 H   0  0  0  0  0  0  0  0  0  0  0  0
   19.5920   20.0601   22.9452 H   0  0  0  0  0  0  0  0  0  0  0  0
   20.9694   18.7543   21.8674 C   0  0  0  0  0  0  0  0  0  0  0  0
   21.1438   17.6736   21.7703 H   0  0  0  0  0  0  0  0  0  0  0  0
   21.8661   19.1694   22.3482 H   0  0  0  0  0  0  0  0  0  0  0  0
   20.8158   19.3575   20.4500 C   0  0  0  0  0  0  0  0  0  0  0  0
   21.6826   19.0590   19.8438 H   0  0  0  0  0  0  0  0  0  0  0  0
   19.9334   18.9271   19.9561 H   0  0  0  0  0  0  0  0  0  0  0  0
   20.7130   20.8999   20.4460 C   0  0  0  0  0  0  0  0  0  0  0  0
   21.5703   21.3545   20.9592 H   0  0  0  0  0  0  0  0  0  0  0  0
   20.6979   21.2812   19.4167 H   0  0  0  0  0  0  0  0  0  0  0  0
   19.7950   21.2445   20.9379 H   0  0  0  0  0  0  0  0  0  0  0  0
  1  2  1  0  0  0  0
  1  3  1  0  0  0  0
  1  4  1  0  0  0  0
  1  5  1  0  0  0  0
  5  6  1  0  0  0  0
  5  7  1  0  0  0  0
  5  8  1  0  0  0  0
  8  9  1  0  0  0  0
  8 10  1  0  0  0  0
  8 11  1  0  0  0  0
 11 12  1  0  0  0  0
 11 13  1  0  0  0  0
 11 14  1  0  0  0  0
 14 15  1  0  0  0  0
 14 16  1  0  0  0  0
 14 17  1  0  0  0  0
 17 18  1  0  0  0  0
 17 19  1  0  0  0  0
 17 20  1  0  0  0  0
M  END
> <VConfSearch Rank>
130

> <Conf_Id>
42

> <Delta U+W>
0.508

> <U+W>
-11.270

> <U>
46.486

> <W>
-57.756

> <W(PB)>
-59.705

> <W(SA)>
1.949

> <Valence>
1.806

> <Coulomb>
44.248

> <VdW>
0.433

> <VdW6>
-4.089

> <VdW12>
4.522

> <Bond>
0.131

> <Angle>
0.628

> <Pdih>
1.047

> <Idih>
0.000

> <Tether>
0.000

$$$$
VeraChem MOL file


 20 19  0  0  0  0  0  0  0  0999 V2000     
   21.6610   17.7473   24.7296 N   0  3  0  0  0  0  0  0  0  0  0  0
   21.4083   18.4120   25.4676 H   0  0  0  0  0  0  0  0  0  0  0  0
   20.9820   16.9806   24.7691 H   0  0  0  0  0  0  0  0  0  0  0  0
   22.5716   17.3513   24.9855 H   0  0  0  0  0  0  0  0  0  0  0  0
   21.6961   18.4034   23.3640 C   0  0  0  0  0  0  0  0  0  0  0  0
   22.0001   17.6480   22.6342 H   0  0  0  0  0  0  0  0  0  0  0  0
   22.4590   19.1864   23.3854 H   0  0  0  0  0  0  0  0  0  0  0  0
   20.3436   19.0094   22.9486 C   0  0  0  0  0  0  0  0  0  0  0  0
   19.5826   18.2189   22.9478 H   0  0  0  0  0  0  0  0  0  0  0  0
   20.0345   19.7559   23.6924 H   0  0  0  0  0  0  0  0  0  0  0  0
   20.4263   19.6692   21.5519 C   0  0  0  0  0  0  0  0  0  0  0  0
   20.6906   18.9125   20.8001 H   0  0  0  0  0  0  0  0  0  0  0  0
   21.2440   20.4035   21.5510 H   0  0  0  0  0  0  0  0  0  0  0  0
   19.1208   20.3855   21.1285 C   0  0  0  0  0  0  0  0  0  0  0  0
   18.8656   21.1598   21.8656 H   0  0  0  0  0  0  0  0  0  0  0  0
   19.2989   20.9116   20.1801 H   0  0  0  0  0  0  0  0  0  0  0  0
   17.9232   19.4250   20.9479 C   0  0  0  0  0  0  0  0  0  0  0  0
   17.6286   18.9638   21.8986 H   0  0  0  0  0  0  0  0  0  0  0  0
   17.0509   19.9673   20.5608 H   0  0  0  0  0  0  0  0  0  0  0  0
   18.1627   18.6242   20.2362 H   0  0  0  0  0  0  0  0  0  0  0  0
  1  2  1  0  0  0  0
  1  3  1  0  0  0  0
  1  4  1  0  0  0  0
  1  5  1  0  0  0  0
  5  6  1  0  0  0  0
  5  7  1  0  0  0  0
  5  8  1  0  0  0  0
  8  9  1  0  0  0  0
  8 10  1  0  0  0  0
  8 11  1  0  0  0  0
 11 12  1  0  0  0  0
 11 13  1  0  0  0  0
 11 14  1  0  0  0  0
 14 15  1  0  0  0  0
 14 16  1  0  0  0  0
 14 17  1  0  0  0  0
 17 18  1  0  0  0  0
 17 19  1  0  0  0  0
 17 20  1  0  0  0  0
M  END
> <VConfSearch Rank>
131

> <Conf_Id>
41

> <Delta U+W>
0.515

> <U+W>
-11.263

> <U>
46.486

> <W>
-57.749

> <W(PB)>
-59.685

> <W(SA)>
1.936

> <Valence>
1.806

> <Coulomb>
44.248

> <VdW>
0.433

> <VdW6>
-4.089

> <VdW12>
4.522

> <Bond>
0.131

> <Angle>
0.628

> <Pdih>
1.047

> <Idih>
0.000

> <Tether>
0.000

$$$$
VeraChem MOL file


 20 19  0  0  0  0  0  0  0  0999 V2000     
   22.1905   19.8552   20.7469 N   0  3  0  0  0  0  0  0  0  0  0  0
   22.5297   20.2628   19.8693 H   0  0  0  0  0  0  0  0  0  0  0  0
   22.2134   20.5997   21.4498 H   0  0  0  0  0  0  0  0  0  0  0  0
   22.8761   19.1487   21.0316 H   0  0  0  0  0  0  0  0  0  0  0  0
   20.8018   19.2651   20.5934 C   0  0  0  0  0  0  0  0  0  0  0  0
   20.8479   18.5137   19.8004 H   0  0  0  0  0  0  0  0  0  0  0  0
   20.1278   20.0620   20.2675 H   0  0  0  0  0  0  0  0  0  0  0  0
   20.2534   18.6155   21.8792 C   0  0  0  0  0  0  0  0  0  0  0  0
   19.3061   18.1209   21.6309 H   0  0  0  0  0  0  0  0  0  0  0  0
   20.9411   17.8276   22.2137 H   0  0  0  0  0  0  0  0  0  0  0  0
   20.0257   19.6414   23.0180 C   0  0  0  0  0  0  0  0  0  0  0  0
   19.3192   20.4139   22.6839 H   0  0  0  0  0  0  0  0  0  0  0  0
   20.9688   20.1593   23.2372 H   0  0  0  0  0  0  0  0  0  0  0  0
   19.5096   19.0017   24.3300 C   0  0  0  0  0  0  0  0  0  0  0  0
   20.2199   18.2376   24.6757 H   0  0  0  0  0  0  0  0  0  0  0  0
   19.4850   19.7736   25.1120 H   0  0  0  0  0  0  0  0  0  0  0  0
   18.0998   18.3809   24.2006 C   0  0  0  0  0  0  0  0  0  0  0  0
   18.0980   17.5200   23.5209 H   0  0  0  0  0  0  0  0  0  0  0  0
   17.7442   18.0291   25.1777 H   0  0  0  0  0  0  0  0  0  0  0  0
   17.3766   19.1170   23.8262 H   0  0  0  0  0  0  0  0  0  0  0  0
  1  2  1  0  0  0  0
  1  3  1  0  0  0  0
  1  4  1  0  0  0  0
  1  5  1  0  0  0  0
  5  6  1  0  0  0  0
  5  7  1  0  0  0  0
  5  8  1  0  0  0  0
  8  9  1  0  0  0  0
  8 10  1  0  0  0  0
  8 11  1  0  0  0  0
 11 12  1  0  0  0  0
 11 13  1  0  0  0  0
 11 14  1  0  0  0  0
 14 15  1  0  0  0  0
 14 16  1  0  0  0  0
 14 17  1  0  0  0  0
 17 18  1  0  0  0  0
 17 19  1  0  0  0  0
 17 20  1  0  0  0  0
M  END
> <VConfSearch Rank>
132

> <Conf_Id>
33

> <Delta U+W>
0.703

> <U+W>
-11.075

> <U>
47.080

> <W>
-58.154

> <W(PB)>
-60.053

> <W(SA)>
1.899

> <Valence>
1.943

> <Coulomb>
44.572

> <VdW>
0.565

> <VdW6>
-4.575

> <VdW12>
5.139

> <Bond>
0.158

> <Angle>
0.700

> <Pdih>
1.085

> <Idih>
0.000

> <Tether>
0.000

$$$$
VeraChem MOL file


 20 19  0  0  0  0  0  0  0  0999 V2000     
   19.8722   19.3926   19.7237 N   0  3  0  0  0  0  0  0  0  0  0  0
   19.5810   19.0370   18.8071 H   0  0  0  0  0  0  0  0  0  0  0  0
   19.7926   20.4136   19.6859 H   0  0  0  0  0  0  0  0  0  0  0  0
   20.8666   19.1701   19.8275 H   0  0  0  0  0  0  0  0  0  0  0  0
   19.0407   18.8024   20.8463 C   0  0  0  0  0  0  0  0  0  0  0  0
   19.1513   17.7151   20.8160 H   0  0  0  0  0  0  0  0  0  0  0  0
   17.9935   19.0431   20.6435 H   0  0  0  0  0  0  0  0  0  0  0  0
   19.4211   19.3236   22.2462 C   0  0  0  0  0  0  0  0  0  0  0  0
   19.3257   20.4173   22.2683 H   0  0  0  0  0  0  0  0  0  0  0  0
   18.6904   18.9301   22.9638 H   0  0  0  0  0  0  0  0  0  0  0  0
   20.8511   18.9057   22.6723 C   0  0  0  0  0  0  0  0  0  0  0  0
   21.5746   19.2709   21.9315 H   0  0  0  0  0  0  0  0  0  0  0  0
   20.9322   17.8099   22.6696 H   0  0  0  0  0  0  0  0  0  0  0  0
   21.2647   19.4510   24.0610 C   0  0  0  0  0  0  0  0  0  0  0  0
   22.3223   19.2074   24.2340 H   0  0  0  0  0  0  0  0  0  0  0  0
   21.1982   20.5481   24.0646 H   0  0  0  0  0  0  0  0  0  0  0  0
   20.4257   18.8752   25.2247 C   0  0  0  0  0  0  0  0  0  0  0  0
   20.4501   17.7777   25.2242 H   0  0  0  0  0  0  0  0  0  0  0  0
   20.8209   19.2186   26.1894 H   0  0  0  0  0  0  0  0  0  0  0  0
   19.3785   19.1964   25.1656 H   0  0  0  0  0  0  0  0  0  0  0  0
  1  2  1  0  0  0  0
  1  3  1  0  0  0  0
  1  4  1  0  0  0  0
  1  5  1  0  0  0  0
  5  6  1  0  0  0  0
  5  7  1  0  0  0  0
  5  8  1  0  0  0  0
  8  9  1  0  0  0  0
  8 10  1  0  0  0  0
  8 11  1  0  0  0  0
 11 12  1  0  0  0  0
 11 13  1  0  0  0  0
 11 14  1  0  0  0  0
 14 15  1  0  0  0  0
 14 16  1  0  0  0  0
 14 17  1  0  0  0  0
 17 18  1  0  0  0  0
 17 19  1  0  0  0  0
 17 20  1  0  0  0  0
M  END
> <VConfSearch Rank>
133

> <Conf_Id>
24

> <Delta U+W>
0.847

> <U+W>
-10.931

> <U>
47.080

> <W>
-58.011

> <W(PB)>
-59.914

> <W(SA)>
1.903

> <Valence>
1.943

> <Coulomb>
44.572

> <VdW>
0.565

> <VdW6>
-4.575

> <VdW12>
5.140

> <Bond>
0.158

> <Angle>
0.700

> <Pdih>
1.085

> <Idih>
0.000

> <Tether>
0.000

$$$$
VeraChem MOL file


 20 19  0  0  0  0  0  0  0  0999 V2000     
   20.5097   16.6039   21.7063 N   0  3  0  0  0  0  0  0  0  0  0  0
   19.9756   16.0869   21.0000 H   0  0  0  0  0  0  0  0  0  0  0  0
   21.4151   16.8339   21.2850 H   0  0  0  0  0  0  0  0  0  0  0  0
   20.6924   15.9524   22.4761 H   0  0  0  0  0  0  0  0  0  0  0  0
   19.7722   17.8418   22.1754 C   0  0  0  0  0  0  0  0  0  0  0  0
   18.8085   17.5266   22.5844 H   0  0  0  0  0  0  0  0  0  0  0  0
   19.5856   18.4725   21.3023 H   0  0  0  0  0  0  0  0  0  0  0  0
   20.5485   18.6427   23.2377 C   0  0  0  0  0  0  0  0  0  0  0  0
   20.7668   17.9883   24.0921 H   0  0  0  0  0  0  0  0  0  0  0  0
   21.5200   18.9518   22.8313 H   0  0  0  0  0  0  0  0  0  0  0  0
   19.7676   19.8811   23.7440 C   0  0  0  0  0  0  0  0  0  0  0  0
   20.3709   20.3965   24.5040 H   0  0  0  0  0  0  0  0  0  0  0  0
   18.8578   19.5428   24.2591 H   0  0  0  0  0  0  0  0  0  0  0  0
   19.3684   20.8946   22.6409 C   0  0  0  0  0  0  0  0  0  0  0  0
   18.6777   20.4259   21.9267 H   0  0  0  0  0  0  0  0  0  0  0  0
   18.8072   21.7166   23.1070 H   0  0  0  0  0  0  0  0  0  0  0  0
   20.5785   21.4855   21.8823 C   0  0  0  0  0  0  0  0  0  0  0  0
   20.2498   22.2625   21.1800 H   0  0  0  0  0  0  0  0  0  0  0  0
   21.2952   21.9425   22.5769 H   0  0  0  0  0  0  0  0  0  0  0  0
   21.1039   20.7173   21.3014 H   0  0  0  0  0  0  0  0  0  0  0  0
  1  2  1  0  0  0  0
  1  3  1  0  0  0  0
  1  4  1  0  0  0  0
  1  5  1  0  0  0  0
  5  6  1  0  0  0  0
  5  7  1  0  0  0  0
  5  8  1  0  0  0  0
  8  9  1  0  0  0  0
  8 10  1  0  0  0  0
  8 11  1  0  0  0  0
 11 12  1  0  0  0  0
 11 13  1  0  0  0  0
 11 14  1  0  0  0  0
 14 15  1  0  0  0  0
 14 16  1  0  0  0  0
 14 17  1  0  0  0  0
 17 18  1  0  0  0  0
 17 19  1  0  0  0  0
 17 20  1  0  0  0  0
M  END
> <VConfSearch Rank>
134

> <Conf_Id>
64

> <Delta U+W>
0.707

> <U+W>
-11.070

> <U>
47.077

> <W>
-58.148

> <W(PB)>
-60.054

> <W(SA)>
1.906

> <Valence>
2.039

> <Coulomb>
44.655

> <VdW>
0.383

> <VdW6>
-4.912

> <VdW12>
5.295

> <Bond>
0.159

> <Angle>
0.856

> <Pdih>
1.024

> <Idih>
0.000

> <Tether>
0.000

$$$$
VeraChem MOL file


 20 19  0  0  0  0  0  0  0  0999 V2000     
   21.9081   17.0331   21.7805 N   0  3  0  0  0  0  0  0  0  0  0  0
   22.1012   16.9748   20.7756 H   0  0  0  0  0  0  0  0  0  0  0  0
   22.7028   17.5149   22.2124 H   0  0  0  0  0  0  0  0  0  0  0  0
   21.9114   16.0727   22.1398 H   0  0  0  0  0  0  0  0  0  0  0  0
   20.5964   17.7365   22.0651 C   0  0  0  0  0  0  0  0  0  0  0  0
   20.4423   17.7346   23.1473 H   0  0  0  0  0  0  0  0  0  0  0  0
   19.7940   17.1557   21.6022 H   0  0  0  0  0  0  0  0  0  0  0  0
   20.5587   19.1833   21.5380 C   0  0  0  0  0  0  0  0  0  0  0  0
   21.3695   19.7649   21.9951 H   0  0  0  0  0  0  0  0  0  0  0  0
   20.7558   19.1772   20.4578 H   0  0  0  0  0  0  0  0  0  0  0  0
   19.1984   19.8792   21.7935 C   0  0  0  0  0  0  0  0  0  0  0  0
   18.4175   19.3548   21.2254 H   0  0  0  0  0  0  0  0  0  0  0  0
   19.2370   20.8980   21.3840 H   0  0  0  0  0  0  0  0  0  0  0  0
   18.7714   19.9471   23.2822 C   0  0  0  0  0  0  0  0  0  0  0  0
   17.7910   20.4401   23.3432 H   0  0  0  0  0  0  0  0  0  0  0  0
   18.6242   18.9344   23.6816 H   0  0  0  0  0  0  0  0  0  0  0  0
   19.7719   20.7171   24.1739 C   0  0  0  0  0  0  0  0  0  0  0  0
   19.9523   21.7272   23.7838 H   0  0  0  0  0  0  0  0  0  0  0  0
   19.3798   20.8167   25.1943 H   0  0  0  0  0  0  0  0  0  0  0  0
   20.7354   20.1966   24.2405 H   0  0  0  0  0  0  0  0  0  0  0  0
  1  2  1  0  0  0  0
  1  3  1  0  0  0  0
  1  4  1  0  0  0  0
  1  5  1  0  0  0  0
  5  6  1  0  0  0  0
  5  7  1  0  0  0  0
  5  8  1  0  0  0  0
  8  9  1  0  0  0  0
  8 10  1  0  0  0  0
  8 11  1  0  0  0  0
 11 12  1  0  0  0  0
 11 13  1  0  0  0  0
 11 14  1  0  0  0  0
 14 15  1  0  0  0  0
 14 16  1  0  0  0  0
 14 17  1  0  0  0  0
 17 18  1  0  0  0  0
 17 19  1  0  0  0  0
 17 20  1  0  0  0  0
M  END
> <VConfSearch Rank>
135

> <Conf_Id>
22

> <Delta U+W>
0.731

> <U+W>
-11.047

> <U>
47.078

> <W>
-58.125

> <W(PB)>
-60.031

> <W(SA)>
1.906

> <Valence>
2.039

> <Coulomb>
44.655

> <VdW>
0.383

> <VdW6>
-4.913

> <VdW12>
5.296

> <Bond>
0.159

> <Angle>
0.856

> <Pdih>
1.024

> <Idih>
0.000

> <Tether>
0.000

$$$$
VeraChem MOL file


 20 19  0  0  0  0  0  0  0  0999 V2000     
   18.9328   17.7386   24.4664 N   0  3  0  0  0  0  0  0  0  0  0  0
   19.0456   16.7807   24.1201 H   0  0  0  0  0  0  0  0  0  0  0  0
   19.4171   17.7917   25.3681 H   0  0  0  0  0  0  0  0  0  0  0  0
   17.9340   17.8702   24.6575 H   0  0  0  0  0  0  0  0  0  0  0  0
   19.4576   18.7629   23.4805 C   0  0  0  0  0  0  0  0  0  0  0  0
   19.2813   19.7573   23.8996 H   0  0  0  0  0  0  0  0  0  0  0  0
   18.8769   18.6653   22.5604 H   0  0  0  0  0  0  0  0  0  0  0  0
   20.9545   18.5890   23.1680 C   0  0  0  0  0  0  0  0  0  0  0  0
   21.5126   18.5693   24.1135 H   0  0  0  0  0  0  0  0  0  0  0  0
   21.1175   17.6131   22.6916 H   0  0  0  0  0  0  0  0  0  0  0  0
   21.5440   19.7092   22.2738 C   0  0  0  0  0  0  0  0  0  0  0  0
   22.6257   19.5329   22.1945 H   0  0  0  0  0  0  0  0  0  0  0  0
   21.4381   20.6844   22.7691 H   0  0  0  0  0  0  0  0  0  0  0  0
   20.9625   19.7723   20.8375 C   0  0  0  0  0  0  0  0  0  0  0  0
   21.7313   20.1903   20.1724 H   0  0  0  0  0  0  0  0  0  0  0  0
   20.7591   18.7591   20.4636 H   0  0  0  0  0  0  0  0  0  0  0  0
   19.6982   20.6547   20.7111 C   0  0  0  0  0  0  0  0  0  0  0  0
   18.8516   20.2517   21.2765 H   0  0  0  0  0  0  0  0  0  0  0  0
   19.8923   21.6743   21.0685 H   0  0  0  0  0  0  0  0  0  0  0  0
   19.3859   20.7255   19.6611 H   0  0  0  0  0  0  0  0  0  0  0  0
  1  2  1  0  0  0  0
  1  3  1  0  0  0  0
  1  4  1  0  0  0  0
  1  5  1  0  0  0  0
  5  6  1  0  0  0  0
  5  7  1  0  0  0  0
  5  8  1  0  0  0  0
  8  9  1  0  0  0  0
  8 10  1  0  0  0  0
  8 11  1  0  0  0  0
 11 12  1  0  0  0  0
 11 13  1  0  0  0  0
 11 14  1  0  0  0  0
 14 15  1  0  0  0  0
 14 16  1  0  0  0  0
 14 17  1  0  0  0  0
 17 18  1  0  0  0  0
 17 19  1  0  0  0  0
 17 20  1  0  0  0  0
M  END
> <VConfSearch Rank>
136

> <Conf_Id>
61

> <Delta U+W>
2.669

> <U+W>
-9.108

> <U>
48.916

> <W>
-58.025

> <W(PB)>
-59.935

> <W(SA)>
1.911

> <Valence>
3.785

> <Coulomb>
44.716

> <VdW>
0.415

> <VdW6>
-4.836

> <VdW12>
5.251

> <Bond>
0.175

> <Angle>
1.195

> <Pdih>
2.415

> <Idih>
0.000

> <Tether>
0.000

$$$$
VeraChem MOL file


 20 19  0  0  0  0  0  0  0  0999 V2000     
   18.3638   17.8436   23.2481 N   0  3  0  0  0  0  0  0  0  0  0  0
   18.0534   17.2129   23.9948 H   0  0  0  0  0  0  0  0  0  0  0  0
   17.5936   17.9080   22.5751 H   0  0  0  0  0  0  0  0  0  0  0  0
   19.1439   17.3840   22.7714 H   0  0  0  0  0  0  0  0  0  0  0  0
   18.7533   19.2060   23.7894 C   0  0  0  0  0  0  0  0  0  0  0  0
   19.5351   19.0718   24.5417 H   0  0  0  0  0  0  0  0  0  0  0  0
   17.8703   19.6139   24.2889 H   0  0  0  0  0  0  0  0  0  0  0  0
   19.2271   20.2062   22.7140 C   0  0  0  0  0  0  0  0  0  0  0  0
   18.5793   20.1431   21.8295 H   0  0  0  0  0  0  0  0  0  0  0  0
   19.0887   21.2187   23.1161 H   0  0  0  0  0  0  0  0  0  0  0  0
   20.7153   20.0572   22.3058 C   0  0  0  0  0  0  0  0  0  0  0  0
   21.3523   20.1811   23.1926 H   0  0  0  0  0  0  0  0  0  0  0  0
   20.9688   20.8858   21.6299 H   0  0  0  0  0  0  0  0  0  0  0  0
   21.0581   18.7205   21.6072 C   0  0  0  0  0  0  0  0  0  0  0  0
   20.9556   17.8889   22.3155 H   0  0  0  0  0  0  0  0  0  0  0  0
   20.3540   18.5380   20.7833 H   0  0  0  0  0  0  0  0  0  0  0  0
   22.4998   18.7209   21.0554 C   0  0  0  0  0  0  0  0  0  0  0  0
   22.7303   17.7628   20.5717 H   0  0  0  0  0  0  0  0  0  0  0  0
   22.6380   19.5151   20.3101 H   0  0  0  0  0  0  0  0  0  0  0  0
   23.2305   18.8763   21.8599 H   0  0  0  0  0  0  0  0  0  0  0  0
  1  2  1  0  0  0  0
  1  3  1  0  0  0  0
  1  4  1  0  0  0  0
  1  5  1  0  0  0  0
  5  6  1  0  0  0  0
  5  7  1  0  0  0  0
  5  8  1  0  0  0  0
  8  9  1  0  0  0  0
  8 10  1  0  0  0  0
  8 11  1  0  0  0  0
 11 12  1  0  0  0  0
 11 13  1  0  0  0  0
 11 14  1  0  0  0  0
 14 15  1  0  0  0  0
 14 16  1  0  0  0  0
 14 17  1  0  0  0  0
 17 18  1  0  0  0  0
 17 19  1  0  0  0  0
 17 20  1  0  0  0  0
M  END
> <VConfSearch Rank>
137

> <Conf_Id>
69

> <Delta U+W>
2.811

> <U+W>
-8.967

> <U>
49.216

> <W>
-58.183

> <W(PB)>
-60.064

> <W(SA)>
1.881

> <Valence>
2.929

> <Coulomb>
46.006

> <VdW>
0.281

> <VdW6>
-4.909

> <VdW12>
5.190

> <Bond>
0.156

> <Angle>
0.974

> <Pdih>
1.799

> <Idih>
0.000

> <Tether>
0.000

$$$$
VeraChem MOL file


 20 19  0  0  0  0  0  0  0  0999 V2000     
   20.1057   18.6077   20.1996 N   0  3  0  0  0  0  0  0  0  0  0  0
   20.7180   18.1403   20.8731 H   0  0  0  0  0  0  0  0  0  0  0  0
   19.3175   17.9778   20.0195 H   0  0  0  0  0  0  0  0  0  0  0  0
   20.6289   18.6868   19.3212 H   0  0  0  0  0  0  0  0  0  0  0  0
   19.6406   19.9618   20.7003 C   0  0  0  0  0  0  0  0  0  0  0  0
   19.0077   20.3898   19.9181 H   0  0  0  0  0  0  0  0  0  0  0  0
   20.5142   20.6084   20.8193 H   0  0  0  0  0  0  0  0  0  0  0  0
   18.8417   19.9123   22.0197 C   0  0  0  0  0  0  0  0  0  0  0  0
   18.2284   20.8217   22.0725 H   0  0  0  0  0  0  0  0  0  0  0  0
   18.1338   19.0731   21.9999 H   0  0  0  0  0  0  0  0  0  0  0  0
   19.7141   19.8535   23.3000 C   0  0  0  0  0  0  0  0  0  0  0  0
   19.0492   19.9395   24.1706 H   0  0  0  0  0  0  0  0  0  0  0  0
   20.3752   20.7307   23.3331 H   0  0  0  0  0  0  0  0  0  0  0  0
   20.5587   18.5656   23.4421 C   0  0  0  0  0  0  0  0  0  0  0  0
   19.9198   17.6823   23.3025 H   0  0  0  0  0  0  0  0  0  0  0  0
   21.3327   18.5357   22.6650 H   0  0  0  0  0  0  0  0  0  0  0  0
   21.2450   18.4854   24.8225 C   0  0  0  0  0  0  0  0  0  0  0  0
   20.5043   18.4723   25.6326 H   0  0  0  0  0  0  0  0  0  0  0  0
   21.8475   17.5714   24.9036 H   0  0  0  0  0  0  0  0  0  0  0  0
   21.9113   19.3432   24.9825 H   0  0  0  0  0  0  0  0  0  0  0  0
  1  2  1  0  0  0  0
  1  3  1  0  0  0  0
  1  4  1  0  0  0  0
  1  5  1  0  0  0  0
  5  6  1  0  0  0  0
  5  7  1  0  0  0  0
  5  8  1  0  0  0  0
  8  9  1  0  0  0  0
  8 10  1  0  0  0  0
  8 11  1  0  0  0  0
 11 12  1  0  0  0  0
 11 13  1  0  0  0  0
 11 14  1  0  0  0  0
 14 15  1  0  0  0  0
 14 16  1  0  0  0  0
 14 17  1  0  0  0  0
 17 18  1  0  0  0  0
 17 19  1  0  0  0  0
 17 20  1  0  0  0  0
M  END
> <VConfSearch Rank>
138

> <Conf_Id>
26

> <Delta U+W>
2.809

> <U+W>
-8.969

> <U>
49.216

> <W>
-58.185

> <W(PB)>
-60.088

> <W(SA)>
1.903

> <Valence>
2.929

> <Coulomb>
46.006

> <VdW>
0.281

> <VdW6>
-4.909

> <VdW12>
5.190

> <Bond>
0.156

> <Angle>
0.974

> <Pdih>
1.799

> <Idih>
0.000

> <Tether>
0.000

$$$$
VeraChem MOL file


 20 19  0  0  0  0  0  0  0  0999 V2000     
   19.0736   18.3218   20.4597 N   0  3  0  0  0  0  0  0  0  0  0  0
   19.5706   19.1780   20.1972 H   0  0  0  0  0  0  0  0  0  0  0  0
   19.5370   17.5437   19.9803 H   0  0  0  0  0  0  0  0  0  0  0  0
   18.1278   18.3916   20.0699 H   0  0  0  0  0  0  0  0  0  0  0  0
   19.0509   18.1247   21.9629 C   0  0  0  0  0  0  0  0  0  0  0  0
   18.4813   17.2148   22.1708 H   0  0  0  0  0  0  0  0  0  0  0  0
   18.5168   18.9680   22.4083 H   0  0  0  0  0  0  0  0  0  0  0  0
   20.4532   18.0059   22.5935 C   0  0  0  0  0  0  0  0  0  0  0  0
   20.3426   17.7896   23.6638 H   0  0  0  0  0  0  0  0  0  0  0  0
   20.9678   17.1362   22.1640 H   0  0  0  0  0  0  0  0  0  0  0  0
   21.3378   19.2666   22.4057 C   0  0  0  0  0  0  0  0  0  0  0  0
   21.5809   19.3847   21.3412 H   0  0  0  0  0  0  0  0  0  0  0  0
   22.2985   19.1030   22.9131 H   0  0  0  0  0  0  0  0  0  0  0  0
   20.7103   20.5848   22.9267 C   0  0  0  0  0  0  0  0  0  0  0  0
   21.4080   21.4094   22.7241 H   0  0  0  0  0  0  0  0  0  0  0  0
   19.7959   20.8189   22.3649 H   0  0  0  0  0  0  0  0  0  0  0  0
   20.3971   20.5585   24.4400 C   0  0  0  0  0  0  0  0  0  0  0  0
   21.2925   20.3100   25.0242 H   0  0  0  0  0  0  0  0  0  0  0  0
   20.0393   21.5405   24.7758 H   0  0  0  0  0  0  0  0  0  0  0  0
   19.6170   19.8245   24.6772 H   0  0  0  0  0  0  0  0  0  0  0  0
  1  2  1  0  0  0  0
  1  3  1  0  0  0  0
  1  4  1  0  0  0  0
  1  5  1  0  0  0  0
  5  6  1  0  0  0  0
  5  7  1  0  0  0  0
  5  8  1  0  0  0  0
  8  9  1  0  0  0  0
  8 10  1  0  0  0  0
  8 11  1  0  0  0  0
 11 12  1  0  0  0  0
 11 13  1  0  0  0  0
 11 14  1  0  0  0  0
 14 15  1  0  0  0  0
 14 16  1  0  0  0  0
 14 17  1  0  0  0  0
 17 18  1  0  0  0  0
 17 19  1  0  0  0  0
 17 20  1  0  0  0  0
M  END
> <VConfSearch Rank>
139

> <Conf_Id>
2

> <Delta U+W>
0.994

> <U+W>
-10.784

> <U>
47.562

> <W>
-58.346

> <W(PB)>
-60.221

> <W(SA)>
1.875

> <Valence>
2.149

> <Coulomb>
45.034

> <VdW>
0.378

> <VdW6>
-5.599

> <VdW12>
5.977

> <Bond>
0.185

> <Angle>
0.935

> <Pdih>
1.028

> <Idih>
0.000

> <Tether>
0.000

$$$$
VeraChem MOL file


 20 19  0  0  0  0  0  0  0  0999 V2000     
   21.2685   16.9367   22.6847 N   0  3  0  0  0  0  0  0  0  0  0  0
   20.7408   16.1085   22.3920 H   0  0  0  0  0  0  0  0  0  0  0  0
   21.6363   17.3766   21.8361 H   0  0  0  0  0  0  0  0  0  0  0  0
   22.0742   16.6022   23.2234 H   0  0  0  0  0  0  0  0  0  0  0  0
   20.4121   17.8960   23.4879 C   0  0  0  0  0  0  0  0  0  0  0  0
   21.0400   18.7364   23.7954 H   0  0  0  0  0  0  0  0  0  0  0  0
   20.0813   17.3726   24.3890 H   0  0  0  0  0  0  0  0  0  0  0  0
   19.1818   18.4202   22.7199 C   0  0  0  0  0  0  0  0  0  0  0  0
   18.5412   17.5717   22.4456 H   0  0  0  0  0  0  0  0  0  0  0  0
   18.5813   19.0422   23.3960 H   0  0  0  0  0  0  0  0  0  0  0  0
   19.5329   19.2285   21.4430 C   0  0  0  0  0  0  0  0  0  0  0  0
   18.6012   19.5870   20.9842 H   0  0  0  0  0  0  0  0  0  0  0  0
   19.9893   18.5580   20.7025 H   0  0  0  0  0  0  0  0  0  0  0  0
   20.4772   20.4355   21.6766 C   0  0  0  0  0  0  0  0  0  0  0  0
   21.4523   20.0899   22.0455 H   0  0  0  0  0  0  0  0  0  0  0  0
   20.6747   20.9185   20.7093 H   0  0  0  0  0  0  0  0  0  0  0  0
   19.8978   21.4878   22.6491 C   0  0  0  0  0  0  0  0  0  0  0  0
   19.7894   21.0828   23.6629 H   0  0  0  0  0  0  0  0  0  0  0  0
   20.5612   22.3602   22.7115 H   0  0  0  0  0  0  0  0  0  0  0  0
   18.9139   21.8381   22.3113 H   0  0  0  0  0  0  0  0  0  0  0  0
  1  2  1  0  0  0  0
  1  3  1  0  0  0  0
  1  4  1  0  0  0  0
  1  5  1  0  0  0  0
  5  6  1  0  0  0  0
  5  7  1  0  0  0  0
  5  8  1  0  0  0  0
  8  9  1  0  0  0  0
  8 10  1  0  0  0  0
  8 11  1  0  0  0  0
 11 12  1  0  0  0  0
 11 13  1  0  0  0  0
 11 14  1  0  0  0  0
 14 15  1  0  0  0  0
 14 16  1  0  0  0  0
 14 17  1  0  0  0  0
 17 18  1  0  0  0  0
 17 19  1  0  0  0  0
 17 20  1  0  0  0  0
M  END
> <VConfSearch Rank>
140

> <Conf_Id>
1

> <Delta U+W>
1.032

> <U+W>
-10.746

> <U>
47.562

> <W>
-58.308

> <W(PB)>
-60.184

> <W(SA)>
1.877

> <Valence>
2.149

> <Coulomb>
45.035

> <VdW>
0.378

> <VdW6>
-5.599

> <VdW12>
5.978

> <Bond>
0.185

> <Angle>
0.935

> <Pdih>
1.028

> <Idih>
0.000

> <Tether>
0.000

$$$$
VeraChem MOL file


 20 19  0  0  0  0  0  0  0  0999 V2000     
   20.2470   18.8269   24.8031 N   0  3  0  0  0  0  0  0  0  0  0  0
   21.1463   18.7270   25.2841 H   0  0  0  0  0  0  0  0  0  0  0  0
   20.1172   19.8237   24.6076 H   0  0  0  0  0  0  0  0  0  0  0  0
   19.5192   18.5560   25.4727 H   0  0  0  0  0  0  0  0  0  0  0  0
   20.1874   17.9921   23.5384 C   0  0  0  0  0  0  0  0  0  0  0  0
   19.1980   18.1209   23.0969 H   0  0  0  0  0  0  0  0  0  0  0  0
   20.2906   16.9438   23.8318 H   0  0  0  0  0  0  0  0  0  0  0  0
   21.2844   18.3396   22.5096 C   0  0  0  0  0  0  0  0  0  0  0  0
   22.2605   18.2071   22.9949 H   0  0  0  0  0  0  0  0  0  0  0  0
   21.2562   17.6116   21.6881 H   0  0  0  0  0  0  0  0  0  0  0  0
   21.2018   19.7787   21.9329 C   0  0  0  0  0  0  0  0  0  0  0  0
   22.2026   20.0547   21.5728 H   0  0  0  0  0  0  0  0  0  0  0  0
   20.9674   20.5008   22.7255 H   0  0  0  0  0  0  0  0  0  0  0  0
   20.2183   19.9556   20.7474 C   0  0  0  0  0  0  0  0  0  0  0  0
   20.3164   20.9828   20.3690 H   0  0  0  0  0  0  0  0  0  0  0  0
   20.5151   19.2983   19.9182 H   0  0  0  0  0  0  0  0  0  0  0  0
   18.7356   19.7021   21.0984 C   0  0  0  0  0  0  0  0  0  0  0  0
   18.4370   20.2590   21.9958 H   0  0  0  0  0  0  0  0  0  0  0  0
   18.0874   20.0243   20.2731 H   0  0  0  0  0  0  0  0  0  0  0  0
   18.5408   18.6359   21.2639 H   0  0  0  0  0  0  0  0  0  0  0  0
  1  2  1  0  0  0  0
  1  3  1  0  0  0  0
  1  4  1  0  0  0  0
  1  5  1  0  0  0  0
  5  6  1  0  0  0  0
  5  7  1  0  0  0  0
  5  8  1  0  0  0  0
  8  9  1  0  0  0  0
  8 10  1  0  0  0  0
  8 11  1  0  0  0  0
 11 12  1  0  0  0  0
 11 13  1  0  0  0  0
 11 14  1  0  0  0  0
 14 15  1  0  0  0  0
 14 16  1  0  0  0  0
 14 17  1  0  0  0  0
 17 18  1  0  0  0  0
 17 19  1  0  0  0  0
 17 20  1  0  0  0  0
M  END
> <VConfSearch Rank>
141

> <Conf_Id>
80

> <Delta U+W>
2.920

> <U+W>
-8.857

> <U>
49.434

> <W>
-58.292

> <W(PB)>
-60.170

> <W(SA)>
1.879

> <Valence>
3.798

> <Coulomb>
45.253

> <VdW>
0.384

> <VdW6>
-5.595

> <VdW12>
5.979

> <Bond>
0.198

> <Angle>
1.368

> <Pdih>
2.231

> <Idih>
0.000

> <Tether>
0.000

$$$$
VeraChem MOL file


 20 19  0  0  0  0  0  0  0  0999 V2000     
   18.1400   18.5902   23.4049 N   0  3  0  0  0  0  0  0  0  0  0  0
   17.6689   17.7529   23.0482 H   0  0  0  0  0  0  0  0  0  0  0  0
   17.6588   18.8570   24.2702 H   0  0  0  0  0  0  0  0  0  0  0  0
   17.9765   19.3412   22.7282 H   0  0  0  0  0  0  0  0  0  0  0  0
   19.6197   18.3506   23.6345 C   0  0  0  0  0  0  0  0  0  0  0  0
   19.7119   17.5704   24.3950 H   0  0  0  0  0  0  0  0  0  0  0  0
   20.0496   19.2675   24.0410 H   0  0  0  0  0  0  0  0  0  0  0  0
   20.3848   17.9143   22.3669 C   0  0  0  0  0  0  0  0  0  0  0  0
   21.4114   17.6361   22.6395 H   0  0  0  0  0  0  0  0  0  0  0  0
   19.9165   16.9973   21.9854 H   0  0  0  0  0  0  0  0  0  0  0  0
   20.4164   18.9719   21.2307 C   0  0  0  0  0  0  0  0  0  0  0  0
   19.4357   19.4524   21.1213 H   0  0  0  0  0  0  0  0  0  0  0  0
   20.5899   18.4428   20.2834 H   0  0  0  0  0  0  0  0  0  0  0  0
   21.5221   20.0502   21.3677 C   0  0  0  0  0  0  0  0  0  0  0  0
   22.5100   19.5687   21.3803 H   0  0  0  0  0  0  0  0  0  0  0  0
   21.5036   20.6788   20.4664 H   0  0  0  0  0  0  0  0  0  0  0  0
   21.3802   20.9635   22.6053 C   0  0  0  0  0  0  0  0  0  0  0  0
   21.6174   20.4236   23.5296 H   0  0  0  0  0  0  0  0  0  0  0  0
   22.0767   21.8092   22.5376 H   0  0  0  0  0  0  0  0  0  0  0  0
   20.3644   21.3717   22.6857 H   0  0  0  0  0  0  0  0  0  0  0  0
  1  2  1  0  0  0  0
  1  3  1  0  0  0  0
  1  4  1  0  0  0  0
  1  5  1  0  0  0  0
  5  6  1  0  0  0  0
  5  7  1  0  0  0  0
  5  8  1  0  0  0  0
  8  9  1  0  0  0  0
  8 10  1  0  0  0  0
  8 11  1  0  0  0  0
 11 12  1  0  0  0  0
 11 13  1  0  0  0  0
 11 14  1  0  0  0  0
 14 15  1  0  0  0  0
 14 16  1  0  0  0  0
 14 17  1  0  0  0  0
 17 18  1  0  0  0  0
 17 19  1  0  0  0  0
 17 20  1  0  0  0  0
M  END
> <VConfSearch Rank>
142

> <Conf_Id>
65

> <Delta U+W>
2.949

> <U+W>
-8.829

> <U>
49.435

> <W>
-58.263

> <W(PB)>
-60.125

> <W(SA)>
1.862

> <Valence>
3.797

> <Coulomb>
45.253

> <VdW>
0.384

> <VdW6>
-5.596

> <VdW12>
5.980

> <Bond>
0.198

> <Angle>
1.369

> <Pdih>
2.230

> <Idih>
0.000

> <Tether>
0.000

$$$$
VeraChem MOL file


 20 19  0  0  0  0  0  0  0  0999 V2000     
   20.2840   20.2600   24.1299 N   0  3  0  0  0  0  0  0  0  0  0  0
   20.1484   21.2263   24.4455 H   0  0  0  0  0  0  0  0  0  0  0  0
   19.3786   19.9182   23.7936 H   0  0  0  0  0  0  0  0  0  0  0  0
   20.5302   19.7080   24.9575 H   0  0  0  0  0  0  0  0  0  0  0  0
   21.3467   20.1629   23.0524 C   0  0  0  0  0  0  0  0  0  0  0  0
   22.2765   20.5414   23.4857 H   0  0  0  0  0  0  0  0  0  0  0  0
   21.0670   20.8189   22.2238 H   0  0  0  0  0  0  0  0  0  0  0  0
   21.5810   18.7307   22.5307 C   0  0  0  0  0  0  0  0  0  0  0  0
   22.5917   18.6926   22.1031 H   0  0  0  0  0  0  0  0  0  0  0  0
   21.5863   18.0248   23.3718 H   0  0  0  0  0  0  0  0  0  0  0  0
   20.5866   18.2540   21.4380 C   0  0  0  0  0  0  0  0  0  0  0  0
   20.9021   17.2497   21.1228 H   0  0  0  0  0  0  0  0  0  0  0  0
   20.6822   18.8852   20.5437 H   0  0  0  0  0  0  0  0  0  0  0  0
   19.1021   18.1746   21.8769 C   0  0  0  0  0  0  0  0  0  0  0  0
   18.6354   17.3133   21.3781 H   0  0  0  0  0  0  0  0  0  0  0  0
   19.0300   17.9669   22.9529 H   0  0  0  0  0  0  0  0  0  0  0  0
   18.2890   19.4360   21.5007 C   0  0  0  0  0  0  0  0  0  0  0  0
   18.7303   20.3546   21.9017 H   0  0  0  0  0  0  0  0  0  0  0  0
   18.2324   19.5475   20.4100 H   0  0  0  0  0  0  0  0  0  0  0  0
   17.2609   19.3605   21.8784 H   0  0  0  0  0  0  0  0  0  0  0  0
  1  2  1  0  0  0  0
  1  3  1  0  0  0  0
  1  4  1  0  0  0  0
  1  5  1  0  0  0  0
  5  6  1  0  0  0  0
  5  7  1  0  0  0  0
  5  8  1  0  0  0  0
  8  9  1  0  0  0  0
  8 10  1  0  0  0  0
  8 11  1  0  0  0  0
 11 12  1  0  0  0  0
 11 13  1  0  0  0  0
 11 14  1  0  0  0  0
 14 15  1  0  0  0  0
 14 16  1  0  0  0  0
 14 17  1  0  0  0  0
 17 18  1  0  0  0  0
 17 19  1  0  0  0  0
 17 20  1  0  0  0  0
M  END
> <VConfSearch Rank>
143

> <Conf_Id>
77

> <Delta U+W>
5.366

> <U+W>
-6.412

> <U>
51.542

> <W>
-57.954

> <W(PB)>
-59.811

> <W(SA)>
1.857

> <Valence>
5.347

> <Coulomb>
45.870

> <VdW>
0.325

> <VdW6>
-6.161

> <VdW12>
6.486

> <Bond>
0.201

> <Angle>
1.484

> <Pdih>
3.662

> <Idih>
0.000

> <Tether>
0.000

$$$$
VeraChem MOL file


 20 19  0  0  0  0  0  0  0  0999 V2000     
   20.9713   20.8357   22.2278 N   0  3  0  0  0  0  0  0  0  0  0  0
   21.9948   20.8732   22.1904 H   0  0  0  0  0  0  0  0  0  0  0  0
   20.6573   20.2750   21.4297 H   0  0  0  0  0  0  0  0  0  0  0  0
   20.6323   21.7925   22.0820 H   0  0  0  0  0  0  0  0  0  0  0  0
   20.4772   20.2563   23.5392 C   0  0  0  0  0  0  0  0  0  0  0  0
   19.3849   20.3001   23.5526 H   0  0  0  0  0  0  0  0  0  0  0  0
   20.8525   20.9041   24.3361 H   0  0  0  0  0  0  0  0  0  0  0  0
   20.9469   18.8111   23.8022 C   0  0  0  0  0  0  0  0  0  0  0  0
   22.0026   18.7059   23.5189 H   0  0  0  0  0  0  0  0  0  0  0  0
   20.9106   18.6407   24.8864 H   0  0  0  0  0  0  0  0  0  0  0  0
   20.0969   17.7052   23.1207 C   0  0  0  0  0  0  0  0  0  0  0  0
   19.0696   17.7293   23.5099 H   0  0  0  0  0  0  0  0  0  0  0  0
   20.5068   16.7355   23.4356 H   0  0  0  0  0  0  0  0  0  0  0  0
   20.0795   17.7380   21.5712 C   0  0  0  0  0  0  0  0  0  0  0  0
   21.0145   18.1659   21.1852 H   0  0  0  0  0  0  0  0  0  0  0  0
   20.0528   16.7038   21.1996 H   0  0  0  0  0  0  0  0  0  0  0  0
   18.8510   18.4796   20.9928 C   0  0  0  0  0  0  0  0  0  0  0  0
   18.9079   18.5269   19.8975 H   0  0  0  0  0  0  0  0  0  0  0  0
   17.9241   17.9517   21.2525 H   0  0  0  0  0  0  0  0  0  0  0  0
   18.7623   19.5034   21.3717 H   0  0  0  0  0  0  0  0  0  0  0  0
  1  2  1  0  0  0  0
  1  3  1  0  0  0  0
  1  4  1  0  0  0  0
  1  5  1  0  0  0  0
  5  6  1  0  0  0  0
  5  7  1  0  0  0  0
  5  8  1  0  0  0  0
  8  9  1  0  0  0  0
  8 10  1  0  0  0  0
  8 11  1  0  0  0  0
 11 12  1  0  0  0  0
 11 13  1  0  0  0  0
 11 14  1  0  0  0  0
 14 15  1  0  0  0  0
 14 16  1  0  0  0  0
 14 17  1  0  0  0  0
 17 18  1  0  0  0  0
 17 19  1  0  0  0  0
 17 20  1  0  0  0  0
M  END
> <VConfSearch Rank>
144

> <Conf_Id>
67

> <Delta U+W>
5.353

> <U+W>
-6.425

> <U>
51.541

> <W>
-57.966

> <W(PB)>
-59.821

> <W(SA)>
1.855

> <Valence>
5.347

> <Coulomb>
45.870

> <VdW>
0.325

> <VdW6>
-6.161

> <VdW12>
6.486

> <Bond>
0.201

> <Angle>
1.485

> <Pdih>
3.662

> <Idih>
0.000

> <Tether>
0.000

$$$$
VeraChem MOL file


 20 19  0  0  0  0  0  0  0  0999 V2000     
   17.2231   18.1361   23.3506 N   0  3  0  0  0  0  0  0  0  0  0  0
   16.9710   17.6466   22.4862 H   0  0  0  0  0  0  0  0  0  0  0  0
   16.8097   17.6051   24.1243 H   0  0  0  0  0  0  0  0  0  0  0  0
   16.7520   19.0461   23.3298 H   0  0  0  0  0  0  0  0  0  0  0  0
   18.7240   18.2785   23.5041 C   0  0  0  0  0  0  0  0  0  0  0  0
   19.1554   17.2749   23.5493 H   0  0  0  0  0  0  0  0  0  0  0  0
   18.9199   18.7795   24.4560 H   0  0  0  0  0  0  0  0  0  0  0  0
   19.3768   19.0715   22.3576 C   0  0  0  0  0  0  0  0  0  0  0  0
   19.1640   18.5737   21.4022 H   0  0  0  0  0  0  0  0  0  0  0  0
   18.9294   20.0731   22.3057 H   0  0  0  0  0  0  0  0  0  0  0  0
   20.9046   19.1935   22.5520 C   0  0  0  0  0  0  0  0  0  0  0  0
   21.3482   18.1896   22.6087 H   0  0  0  0  0  0  0  0  0  0  0  0
   21.1138   19.6874   23.5112 H   0  0  0  0  0  0  0  0  0  0  0  0
   21.5709   19.9880   21.4064 C   0  0  0  0  0  0  0  0  0  0  0  0
   21.3658   19.4962   20.4451 H   0  0  0  0  0  0  0  0  0  0  0  0
   21.1315   20.9938   21.3475 H   0  0  0  0  0  0  0  0  0  0  0  0
   23.0971   20.1072   21.6048 C   0  0  0  0  0  0  0  0  0  0  0  0
   23.5703   19.1170   21.6332 H   0  0  0  0  0  0  0  0  0  0  0  0
   23.5520   20.6740   20.7821 H   0  0  0  0  0  0  0  0  0  0  0  0
   23.3343   20.6264   22.5426 H   0  0  0  0  0  0  0  0  0  0  0  0
  1  2  1  0  0  0  0
  1  3  1  0  0  0  0
  1  4  1  0  0  0  0
  1  5  1  0  0  0  0
  5  6  1  0  0  0  0
  5  7  1  0  0  0  0
  5  8  1  0  0  0  0
  8  9  1  0  0  0  0
  8 10  1  0  0  0  0
  8 11  1  0  0  0  0
 11 12  1  0  0  0  0
 11 13  1  0  0  0  0
 11 14  1  0  0  0  0
 14 15  1  0  0  0  0
 14 16  1  0  0  0  0
 14 17  1  0  0  0  0
 17 18  1  0  0  0  0
 17 19  1  0  0  0  0
 17 20  1  0  0  0  0
M  END
> <VConfSearch Rank>
145

> <Conf_Id>
72

> <Delta U+W>
0.000

> <U+W>
-11.778

> <U>
45.772

> <W>
-57.550

> <W(PB)>
-59.511

> <W(SA)>
1.961

> <Valence>
1.299

> <Coulomb>
44.177

> <VdW>
0.297

> <VdW6>
-3.490

> <VdW12>
3.786

> <Bond>
0.096

> <Angle>
0.381

> <Pdih>
0.822

> <Idih>
0.000

> <Tether>
0.000

$$$$
VeraChem MOL file


 20 19  0  0  0  0  0  0  0  0999 V2000     
   21.5019   20.0487   19.9709 N   0  3  0  0  0  0  0  0  0  0  0  0
   22.2681   20.4609   20.5125 H   0  0  0  0  0  0  0  0  0  0  0  0
   21.8149   19.1229   19.6624 H   0  0  0  0  0  0  0  0  0  0  0  0
   21.3924   20.6217   19.1275 H   0  0  0  0  0  0  0  0  0  0  0  0
   20.2175   19.9748   20.7719 C   0  0  0  0  0  0  0  0  0  0  0  0
   19.4408   19.5564   20.1260 H   0  0  0  0  0  0  0  0  0  0  0  0
   19.9280   20.9943   21.0405 H   0  0  0  0  0  0  0  0  0  0  0  0
   20.3471   19.1208   22.0459 C   0  0  0  0  0  0  0  0  0  0  0  0
   20.6533   18.1022   21.7728 H   0  0  0  0  0  0  0  0  0  0  0  0
   21.1407   19.5391   22.6777 H   0  0  0  0  0  0  0  0  0  0  0  0
   19.0142   19.0713   22.8295 C   0  0  0  0  0  0  0  0  0  0  0  0
   18.2172   18.7224   22.1581 H   0  0  0  0  0  0  0  0  0  0  0  0
   18.7312   20.0858   23.1430 H   0  0  0  0  0  0  0  0  0  0  0  0
   19.0586   18.1410   24.0662 C   0  0  0  0  0  0  0  0  0  0  0  0
   18.0504   18.0825   24.4998 H   0  0  0  0  0  0  0  0  0  0  0  0
   19.3179   17.1196   23.7540 H   0  0  0  0  0  0  0  0  0  0  0  0
   20.0436   18.6166   25.1584 C   0  0  0  0  0  0  0  0  0  0  0  0
   19.8232   19.6464   25.4681 H   0  0  0  0  0  0  0  0  0  0  0  0
   19.9701   17.9765   26.0471 H   0  0  0  0  0  0  0  0  0  0  0  0
   21.0830   18.5771   24.8096 H   0  0  0  0  0  0  0  0  0  0  0  0
  1  2  1  0  0  0  0
  1  3  1  0  0  0  0
  1  4  1  0  0  0  0
  1  5  1  0  0  0  0
  5  6  1  0  0  0  0
  5  7  1  0  0  0  0
  5  8  1  0  0  0  0
  8  9  1  0  0  0  0
  8 10  1  0  0  0  0
  8 11  1  0  0  0  0
 11 12  1  0  0  0  0
 11 13  1  0  0  0  0
 11 14  1  0  0  0  0
 14 15  1  0  0  0  0
 14 16  1  0  0  0  0
 14 17  1  0  0  0  0
 17 18  1  0  0  0  0
 17 19  1  0  0  0  0
 17 20  1  0  0  0  0
M  END
> <VConfSearch Rank>
146

> <Conf_Id>
42

> <Delta U+W>
0.508

> <U+W>
-11.270

> <U>
46.486

> <W>
-57.756

> <W(PB)>
-59.705

> <W(SA)>
1.949

> <Valence>
1.806

> <Coulomb>
44.248

> <VdW>
0.433

> <VdW6>
-4.089

> <VdW12>
4.522

> <Bond>
0.131

> <Angle>
0.628

> <Pdih>
1.047

> <Idih>
0.000

> <Tether>
0.000

$$$$
VeraChem MOL file


 20 19  0  0  0  0  0  0  0  0999 V2000     
   22.7686   20.4630   22.9624 N   0  3  0  0  0  0  0  0  0  0  0  0
   22.5865   21.2890   22.3837 H   0  0  0  0  0  0  0  0  0  0  0  0
   22.4925   20.6996   23.9206 H   0  0  0  0  0  0  0  0  0  0  0  0
   23.7846   20.3247   22.9715 H   0  0  0  0  0  0  0  0  0  0  0  0
   22.0383   19.2387   22.4481 C   0  0  0  0  0  0  0  0  0  0  0  0
   22.3007   18.3942   23.0911 H   0  0  0  0  0  0  0  0  0  0  0  0
   22.4025   19.0278   21.4390 H   0  0  0  0  0  0  0  0  0  0  0  0
   20.5092   19.4130   22.4209 C   0  0  0  0  0  0  0  0  0  0  0  0
   20.1572   19.6417   23.4347 H   0  0  0  0  0  0  0  0  0  0  0  0
   20.2512   20.2717   21.7869 H   0  0  0  0  0  0  0  0  0  0  0  0
   19.8062   18.1423   21.8880 C   0  0  0  0  0  0  0  0  0  0  0  0
   20.0270   17.2924   22.5487 H   0  0  0  0  0  0  0  0  0  0  0  0
   20.2265   17.8863   20.9053 H   0  0  0  0  0  0  0  0  0  0  0  0
   18.2730   18.2995   21.7419 C   0  0  0  0  0  0  0  0  0  0  0  0
   18.0477   19.1337   21.0627 H   0  0  0  0  0  0  0  0  0  0  0  0
   17.8700   17.3963   21.2626 H   0  0  0  0  0  0  0  0  0  0  0  0
   17.5459   18.5150   23.0889 C   0  0  0  0  0  0  0  0  0  0  0  0
   17.8269   19.4694   23.5511 H   0  0  0  0  0  0  0  0  0  0  0  0
   16.4584   18.5288   22.9404 H   0  0  0  0  0  0  0  0  0  0  0  0
   17.7773   17.7082   23.7964 H   0  0  0  0  0  0  0  0  0  0  0  0
  1  2  1  0  0  0  0
  1  3  1  0  0  0  0
  1  4  1  0  0  0  0
  1  5  1  0  0  0  0
  5  6  1  0  0  0  0
  5  7  1  0  0  0  0
  5  8  1  0  0  0  0
  8  9  1  0  0  0  0
  8 10  1  0  0  0  0
  8 11  1  0  0  0  0
 11 12  1  0  0  0  0
 11 13  1  0  0  0  0
 11 14  1  0  0  0  0
 14 15  1  0  0  0  0
 14 16  1  0  0  0  0
 14 17  1  0  0  0  0
 17 18  1  0  0  0  0
 17 19  1  0  0  0  0
 17 20  1  0  0  0  0
M  END
> <VConfSearch Rank>
147

> <Conf_Id>
41

> <Delta U+W>
0.515

> <U+W>
-11.263

> <U>
46.486

> <W>
-57.749

> <W(PB)>
-59.685

> <W(SA)>
1.936

> <Valence>
1.806

> <Coulomb>
44.248

> <VdW>
0.433

> <VdW6>
-4.089

> <VdW12>
4.522

> <Bond>
0.131

> <Angle>
0.628

> <Pdih>
1.047

> <Idih>
0.000

> <Tether>
0.000

$$$$
VeraChem MOL file


 20 19  0  0  0  0  0  0  0  0999 V2000     
   22.2896   17.9475   23.7551 N   0  3  0  0  0  0  0  0  0  0  0  0
   22.7770   17.1266   24.1293 H   0  0  0  0  0  0  0  0  0  0  0  0
   22.6581   18.1092   22.8133 H   0  0  0  0  0  0  0  0  0  0  0  0
   22.5688   18.7478   24.3311 H   0  0  0  0  0  0  0  0  0  0  0  0
   20.7854   17.7541   23.7480 C   0  0  0  0  0  0  0  0  0  0  0  0
   20.4745   17.5441   24.7751 H   0  0  0  0  0  0  0  0  0  0  0  0
   20.5583   16.8755   23.1381 H   0  0  0  0  0  0  0  0  0  0  0  0
   20.0015   18.9705   23.2174 C   0  0  0  0  0  0  0  0  0  0  0  0
   18.9321   18.7744   23.3646 H   0  0  0  0  0  0  0  0  0  0  0  0
   20.2448   19.8549   23.8210 H   0  0  0  0  0  0  0  0  0  0  0  0
   20.2803   19.2554   21.7200 C   0  0  0  0  0  0  0  0  0  0  0  0
   20.0131   18.3745   21.1200 H   0  0  0  0  0  0  0  0  0  0  0  0
   21.3566   19.4147   21.5725 H   0  0  0  0  0  0  0  0  0  0  0  0
   19.5297   20.4965   21.1784 C   0  0  0  0  0  0  0  0  0  0  0  0
   19.8041   21.3833   21.7668 H   0  0  0  0  0  0  0  0  0  0  0  0
   19.8691   20.6928   20.1516 H   0  0  0  0  0  0  0  0  0  0  0  0
   17.9925   20.3328   21.1704 C   0  0  0  0  0  0  0  0  0  0  0  0
   17.5886   20.2584   22.1875 H   0  0  0  0  0  0  0  0  0  0  0  0
   17.5169   21.1978   20.6903 H   0  0  0  0  0  0  0  0  0  0  0  0
   17.6935   19.4348   20.6143 H   0  0  0  0  0  0  0  0  0  0  0  0
  1  2  1  0  0  0  0
  1  3  1  0  0  0  0
  1  4  1  0  0  0  0
  1  5  1  0  0  0  0
  5  6  1  0  0  0  0
  5  7  1  0  0  0  0
  5  8  1  0  0  0  0
  8  9  1  0  0  0  0
  8 10  1  0  0  0  0
  8 11  1  0  0  0  0
 11 12  1  0  0  0  0
 11 13  1  0  0  0  0
 11 14  1  0  0  0  0
 14 15  1  0  0  0  0
 14 16  1  0  0  0  0
 14 17  1  0  0  0  0
 17 18  1  0  0  0  0
 17 19  1  0  0  0  0
 17 20  1  0  0  0  0
M  END
> <VConfSearch Rank>
148

> <Conf_Id>
33

> <Delta U+W>
0.703

> <U+W>
-11.075

> <U>
47.080

> <W>
-58.154

> <W(PB)>
-60.053

> <W(SA)>
1.899

> <Valence>
1.943

> <Coulomb>
44.572

> <VdW>
0.565

> <VdW6>
-4.575

> <VdW12>
5.139

> <Bond>
0.158

> <Angle>
0.700

> <Pdih>
1.085

> <Idih>
0.000

> <Tether>
0.000

$$$$
VeraChem MOL file


 20 19  0  0  0  0  0  0  0  0999 V2000     
   18.0263   17.3500   22.4444 N   0  3  0  0  0  0  0  0  0  0  0  0
   17.0286   17.1372   22.3403 H   0  0  0  0  0  0  0  0  0  0  0  0
   18.5411   16.5134   22.1524 H   0  0  0  0  0  0  0  0  0  0  0  0
   18.2007   17.4788   23.4453 H   0  0  0  0  0  0  0  0  0  0  0  0
   18.4282   18.5704   21.6388 C   0  0  0  0  0  0  0  0  0  0  0  0
   17.8285   19.4175   21.9827 H   0  0  0  0  0  0  0  0  0  0  0  0
   18.1726   18.3753   20.5937 H   0  0  0  0  0  0  0  0  0  0  0  0
   19.9260   18.9203   21.7399 C   0  0  0  0  0  0  0  0  0  0  0  0
   20.5259   18.0616   21.4104 H   0  0  0  0  0  0  0  0  0  0  0  0
   20.1313   19.7357   21.0352 H   0  0  0  0  0  0  0  0  0  0  0  0
   20.3461   19.3453   23.1695 C   0  0  0  0  0  0  0  0  0  0  0  0
   20.1050   18.5401   23.8760 H   0  0  0  0  0  0  0  0  0  0  0  0
   19.7577   20.2186   23.4836 H   0  0  0  0  0  0  0  0  0  0  0  0
   21.8553   19.6655   23.2990 C   0  0  0  0  0  0  0  0  0  0  0  0
   22.0876   19.8446   24.3582 H   0  0  0  0  0  0  0  0  0  0  0  0
   22.4484   18.7902   22.9989 H   0  0  0  0  0  0  0  0  0  0  0  0
   22.2967   20.8991   22.4785 C   0  0  0  0  0  0  0  0  0  0  0  0
   21.6971   21.7813   22.7375 H   0  0  0  0  0  0  0  0  0  0  0  0
   23.3488   21.1382   22.6807 H   0  0  0  0  0  0  0  0  0  0  0  0
   22.2014   20.7225   21.4001 H   0  0  0  0  0  0  0  0  0  0  0  0
  1  2  1  0  0  0  0
  1  3  1  0  0  0  0
  1  4  1  0  0  0  0
  1  5  1  0  0  0  0
  5  6  1  0  0  0  0
  5  7  1  0  0  0  0
  5  8  1  0  0  0  0
  8  9  1  0  0  0  0
  8 10  1  0  0  0  0
  8 11  1  0  0  0  0
 11 12  1  0  0  0  0
 11 13  1  0  0  0  0
 11 14  1  0  0  0  0
 14 15  1  0  0  0  0
 14 16  1  0  0  0  0
 14 17  1  0  0  0  0
 17 18  1  0  0  0  0
 17 19  1  0  0  0  0
 17 20  1  0  0  0  0
M  END
> <VConfSearch Rank>
149

> <Conf_Id>
24

> <Delta U+W>
0.847

> <U+W>
-10.931

> <U>
47.080

> <W>
-58.011

> <W(PB)>
-59.914

> <W(SA)>
1.903

> <Valence>
1.943

> <Coulomb>
44.572

> <VdW>
0.565

> <VdW6>
-4.575

> <VdW12>
5.140

> <Bond>
0.158

> <Angle>
0.700

> <Pdih>
1.085

> <Idih>
0.000

> <Tether>
0.000

$$$$
VeraChem MOL file


 20 19  0  0  0  0  0  0  0  0999 V2000     
   18.8365   21.5114   21.7471 N   0  3  0  0  0  0  0  0  0  0  0  0
   19.1688   22.2242   21.0891 H   0  0  0  0  0  0  0  0  0  0  0  0
   18.1085   20.9765   21.2634 H   0  0  0  0  0  0  0  0  0  0  0  0
   18.3819   22.0091   22.5192 H   0  0  0  0  0  0  0  0  0  0  0  0
   19.9643   20.6232   22.2323 C   0  0  0  0  0  0  0  0  0  0  0  0
   20.7144   21.2596   22.7096 H   0  0  0  0  0  0  0  0  0  0  0  0
   20.4198   20.1511   21.3579 H   0  0  0  0  0  0  0  0  0  0  0  0
   19.4981   19.5399   23.2231 C   0  0  0  0  0  0  0  0  0  0  0  0
   19.0054   20.0228   24.0774 H   0  0  0  0  0  0  0  0  0  0  0  0
   18.7384   18.9061   22.7481 H   0  0  0  0  0  0  0  0  0  0  0  0
   20.6645   18.6658   23.7482 C   0  0  0  0  0  0  0  0  0  0  0  0
   20.2648   17.9260   24.4554 H   0  0  0  0  0  0  0  0  0  0  0  0
   21.3507   19.2982   24.3285 H   0  0  0  0  0  0  0  0  0  0  0  0
   21.4732   17.9308   22.6487 C   0  0  0  0  0  0  0  0  0  0  0  0
   21.9690   18.6583   21.9917 H   0  0  0  0  0  0  0  0  0  0  0  0
   22.2803   17.3607   23.1297 H   0  0  0  0  0  0  0  0  0  0  0  0
   20.6176   16.9627   21.8001 C   0  0  0  0  0  0  0  0  0  0  0  0
   21.2513   16.4010   21.1018 H   0  0  0  0  0  0  0  0  0  0  0  0
   20.0943   16.2371   22.4362 H   0  0  0  0  0  0  0  0  0  0  0  0
   19.8696   17.5019   21.2056 H   0  0  0  0  0  0  0  0  0  0  0  0
  1  2  1  0  0  0  0
  1  3  1  0  0  0  0
  1  4  1  0  0  0  0
  1  5  1  0  0  0  0
  5  6  1  0  0  0  0
  5  7  1  0  0  0  0
  5  8  1  0  0  0  0
  8  9  1  0  0  0  0
  8 10  1  0  0  0  0
  8 11  1  0  0  0  0
 11 12  1  0  0  0  0
 11 13  1  0  0  0  0
 11 14  1  0  0  0  0
 14 15  1  0  0  0  0
 14 16  1  0  0  0  0
 14 17  1  0  0  0  0
 17 18  1  0  0  0  0
 17 19  1  0  0  0  0
 17 20  1  0  0  0  0
M  END
> <VConfSearch Rank>
150

> <Conf_Id>
64

> <Delta U+W>
0.707

> <U+W>
-11.070

> <U>
47.077

> <W>
-58.148

> <W(PB)>
-60.054

> <W(SA)>
1.906

> <Valence>
2.039

> <Coulomb>
44.655

> <VdW>
0.383

> <VdW6>
-4.912

> <VdW12>
5.295

> <Bond>
0.159

> <Angle>
0.856

> <Pdih>
1.024

> <Idih>
0.000

> <Tether>
0.000

$$$$
VeraChem MOL file


 20 19  0  0  0  0  0  0  0  0999 V2000     
   21.7153   21.2622   21.8511 N   0  3  0  0  0  0  0  0  0  0  0  0
   22.2010   21.1942   20.9513 H   0  0  0  0  0  0  0  0  0  0  0  0
   20.8753   21.8288   21.6980 H   0  0  0  0  0  0  0  0  0  0  0  0
   22.3251   21.7976   22.4781 H   0  0  0  0  0  0  0  0  0  0  0  0
   21.3824   19.8974   22.4192 C   0  0  0  0  0  0  0  0  0  0  0  0
   20.8966   20.0460   23.3872 H   0  0  0  0  0  0  0  0  0  0  0  0
   22.3211   19.3616   22.5841 H   0  0  0  0  0  0  0  0  0  0  0  0
   20.4663   19.0666   21.5009 C   0  0  0  0  0  0  0  0  0  0  0  0
   19.5274   19.6077   21.3274 H   0  0  0  0  0  0  0  0  0  0  0  0
   20.9452   18.9588   20.5187 H   0  0  0  0  0  0  0  0  0  0  0  0
   20.1681   17.6564   22.0687 C   0  0  0  0  0  0  0  0  0  0  0  0
   21.1060   17.0859   22.1172 H   0  0  0  0  0  0  0  0  0  0  0  0
   19.5229   17.1169   21.3616 H   0  0  0  0  0  0  0  0  0  0  0  0
   19.5049   17.6456   23.4698 C   0  0  0  0  0  0  0  0  0  0  0  0
   19.3575   16.6015   23.7795 H   0  0  0  0  0  0  0  0  0  0  0  0
   20.1819   18.0873   24.2137 H   0  0  0  0  0  0  0  0  0  0  0  0
   18.1420   18.3737   23.5102 C   0  0  0  0  0  0  0  0  0  0  0  0
   17.4530   17.9639   22.7604 H   0  0  0  0  0  0  0  0  0  0  0  0
   17.6731   18.2574   24.4959 H   0  0  0  0  0  0  0  0  0  0  0  0
   18.2542   19.4490   23.3234 H   0  0  0  0  0  0  0  0  0  0  0  0
  1  2  1  0  0  0  0
  1  3  1  0  0  0  0
  1  4  1  0  0  0  0
  1  5  1  0  0  0  0
  5  6  1  0  0  0  0
  5  7  1  0  0  0  0
  5  8  1  0  0  0  0
  8  9  1  0  0  0  0
  8 10  1  0  0  0  0
  8 11  1  0  0  0  0
 11 12  1  0  0  0  0
 11 13  1  0  0  0  0
 11 14  1  0  0  0  0
 14 15  1  0  0  0  0
 14 16  1  0  0  0  0
 14 17  1  0  0  0  0
 17 18  1  0  0  0  0
 17 19  1  0  0  0  0
 17 20  1  0  0  0  0
M  END
> <VConfSearch Rank>
151

> <Conf_Id>
22

> <Delta U+W>
0.731

> <U+W>
-11.047

> <U>
47.078

> <W>
-58.125

> <W(PB)>
-60.031

> <W(SA)>
1.906

> <Valence>
2.039

> <Coulomb>
44.655

> <VdW>
0.383

> <VdW6>
-4.913

> <VdW12>
5.296

> <Bond>
0.159

> <Angle>
0.856

> <Pdih>
1.024

> <Idih>
0.000

> <Tether>
0.000

$$$$
VeraChem MOL file


 20 19  0  0  0  0  0  0  0  0999 V2000     
   21.7549   17.6864   20.8412 N   0  3  0  0  0  0  0  0  0  0  0  0
   22.4076   18.3854   20.4728 H   0  0  0  0  0  0  0  0  0  0  0  0
   22.3122   16.9916   21.3481 H   0  0  0  0  0  0  0  0  0  0  0  0
   21.3457   17.2063   20.0327 H   0  0  0  0  0  0  0  0  0  0  0  0
   20.6923   18.3122   21.7220 C   0  0  0  0  0  0  0  0  0  0  0  0
   20.0187   17.5183   22.0557 H   0  0  0  0  0  0  0  0  0  0  0  0
   20.1244   19.0150   21.1080 H   0  0  0  0  0  0  0  0  0  0  0  0
   21.2750   19.0462   22.9428 C   0  0  0  0  0  0  0  0  0  0  0  0
   21.9395   18.3592   23.4837 H   0  0  0  0  0  0  0  0  0  0  0  0
   21.9026   19.8806   22.6025 H   0  0  0  0  0  0  0  0  0  0  0  0
   20.2028   19.5712   23.9311 C   0  0  0  0  0  0  0  0  0  0  0  0
   20.7311   19.9905   24.7986 H   0  0  0  0  0  0  0  0  0  0  0  0
   19.6068   18.7352   24.3226 H   0  0  0  0  0  0  0  0  0  0  0  0
   19.2711   20.6716   23.3599 C   0  0  0  0  0  0  0  0  0  0  0  0
   18.9350   21.3051   24.1929 H   0  0  0  0  0  0  0  0  0  0  0  0
   19.8318   21.3334   22.6851 H   0  0  0  0  0  0  0  0  0  0  0  0
   18.0131   20.1207   22.6481 C   0  0  0  0  0  0  0  0  0  0  0  0
   18.2614   19.5498   21.7474 H   0  0  0  0  0  0  0  0  0  0  0  0
   17.4362   19.4686   23.3167 H   0  0  0  0  0  0  0  0  0  0  0  0
   17.3564   20.9452   22.3416 H   0  0  0  0  0  0  0  0  0  0  0  0
  1  2  1  0  0  0  0
  1  3  1  0  0  0  0
  1  4  1  0  0  0  0
  1  5  1  0  0  0  0
  5  6  1  0  0  0  0
  5  7  1  0  0  0  0
  5  8  1  0  0  0  0
  8  9  1  0  0  0  0
  8 10  1  0  0  0  0
  8 11  1  0  0  0  0
 11 12  1  0  0  0  0
 11 13  1  0  0  0  0
 11 14  1  0  0  0  0
 14 15  1  0  0  0  0
 14 16  1  0  0  0  0
 14 17  1  0  0  0  0
 17 18  1  0  0  0  0
 17 19  1  0  0  0  0
 17 20  1  0  0  0  0
M  END
> <VConfSearch Rank>
152

> <Conf_Id>
61

> <Delta U+W>
2.669

> <U+W>
-9.108

> <U>
48.916

> <W>
-58.025

> <W(PB)>
-59.935

> <W(SA)>
1.911

> <Valence>
3.785

> <Coulomb>
44.716

> <VdW>
0.415

> <VdW6>
-4.836

> <VdW12>
5.251

> <Bond>
0.175

> <Angle>
1.195

> <Pdih>
2.415

> <Idih>
0.000

> <Tether>
0.000

$$$$
VeraChem MOL file


 20 19  0  0  0  0  0  0  0  0999 V2000     
   18.7633   19.6679   24.1567 N   0  3  0  0  0  0  0  0  0  0  0  0
   18.1073   20.3810   24.4925 H   0  0  0  0  0  0  0  0  0  0  0  0
   18.9037   19.0077   24.9278 H   0  0  0  0  0  0  0  0  0  0  0  0
   19.6583   20.1361   23.9932 H   0  0  0  0  0  0  0  0  0  0  0  0
   18.2495   18.9749   22.9092 C   0  0  0  0  0  0  0  0  0  0  0  0
   18.0633   19.7310   22.1418 H   0  0  0  0  0  0  0  0  0  0  0  0
   17.2918   18.5169   23.1715 H   0  0  0  0  0  0  0  0  0  0  0  0
   19.1901   17.8850   22.3536 C   0  0  0  0  0  0  0  0  0  0  0  0
   19.5952   17.2817   23.1769 H   0  0  0  0  0  0  0  0  0  0  0  0
   18.5839   17.1984   21.7478 H   0  0  0  0  0  0  0  0  0  0  0  0
   20.3383   18.4191   21.4591 C   0  0  0  0  0  0  0  0  0  0  0  0
   19.9137   18.9705   20.6087 H   0  0  0  0  0  0  0  0  0  0  0  0
   20.8667   17.5564   21.0301 H   0  0  0  0  0  0  0  0  0  0  0  0
   21.3615   19.3151   22.1957 C   0  0  0  0  0  0  0  0  0  0  0  0
   20.8861   20.2553   22.5021 H   0  0  0  0  0  0  0  0  0  0  0  0
   21.7105   18.8117   23.1082 H   0  0  0  0  0  0  0  0  0  0  0  0
   22.5746   19.6469   21.3005 C   0  0  0  0  0  0  0  0  0  0  0  0
   23.2858   20.2907   21.8341 H   0  0  0  0  0  0  0  0  0  0  0  0
   23.1068   18.7346   21.0011 H   0  0  0  0  0  0  0  0  0  0  0  0
   22.2610   20.1740   20.3900 H   0  0  0  0  0  0  0  0  0  0  0  0
  1  2  1  0  0  0  0
  1  3  1  0  0  0  0
  1  4  1  0  0  0  0
  1  5  1  0  0  0  0
  5  6  1  0  0  0  0
  5  7  1  0  0  0  0
  5  8  1  0  0  0  0
  8  9  1  0  0  0  0
  8 10  1  0  0  0  0
  8 11  1  0  0  0  0
 11 12  1  0  0  0  0
 11 13  1  0  0  0  0
 11 14  1  0  0  0  0
 14 15  1  0  0  0  0
 14 16  1  0  0  0  0
 14 17  1  0  0  0  0
 17 18  1  0  0  0  0
 17 19  1  0  0  0  0
 17 20  1  0  0  0  0
M  END
> <VConfSearch Rank>
153

> <Conf_Id>
69

> <Delta U+W>
2.811

> <U+W>
-8.967

> <U>
49.216

> <W>
-58.183

> <W(PB)>
-60.064

> <W(SA)>
1.881

> <Valence>
2.929

> <Coulomb>
46.006

> <VdW>
0.281

> <VdW6>
-4.909

> <VdW12>
5.190

> <Bond>
0.156

> <Angle>
0.974

> <Pdih>
1.799

> <Idih>
0.000

> <Tether>
0.000

$$$$
VeraChem MOL file


 20 19  0  0  0  0  0  0  0  0999 V2000     
   22.1614   18.2278   22.6468 N   0  3  0  0  0  0  0  0  0  0  0  0
   21.3286   17.7732   23.0300 H   0  0  0  0  0  0  0  0  0  0  0  0
   22.3910   17.7493   21.7701 H   0  0  0  0  0  0  0  0  0  0  0  0
   22.9322   18.0417   23.2970 H   0  0  0  0  0  0  0  0  0  0  0  0
   21.9499   19.7151   22.4373 C   0  0  0  0  0  0  0  0  0  0  0  0
   22.8866   20.1167   22.0412 H   0  0  0  0  0  0  0  0  0  0  0  0
   21.7666   20.1816   23.4090 H   0  0  0  0  0  0  0  0  0  0  0  0
   20.8042   20.0640   21.4641 C   0  0  0  0  0  0  0  0  0  0  0  0
   20.9927   21.0736   21.0753 H   0  0  0  0  0  0  0  0  0  0  0  0
   20.8336   19.3961   20.5930 H   0  0  0  0  0  0  0  0  0  0  0  0
   19.3914   20.0578   22.1026 C   0  0  0  0  0  0  0  0  0  0  0  0
   18.6771   20.4302   21.3552 H   0  0  0  0  0  0  0  0  0  0  0  0
   19.3629   20.7741   22.9354 H   0  0  0  0  0  0  0  0  0  0  0  0
   18.9177   18.6714   22.5984 C   0  0  0  0  0  0  0  0  0  0  0  0
   19.0449   17.9257   21.8011 H   0  0  0  0  0  0  0  0  0  0  0  0
   19.5290   18.3475   23.4500 H   0  0  0  0  0  0  0  0  0  0  0  0
   17.4383   18.7002   23.0383 C   0  0  0  0  0  0  0  0  0  0  0  0
   16.7827   18.9819   22.2039 H   0  0  0  0  0  0  0  0  0  0  0  0
   17.1207   17.7121   23.3960 H   0  0  0  0  0  0  0  0  0  0  0  0
   17.2825   19.4193   23.8531 H   0  0  0  0  0  0  0  0  0  0  0  0
  1  2  1  0  0  0  0
  1  3  1  0  0  0  0
  1  4  1  0  0  0  0
  1  5  1  0  0  0  0
  5  6  1  0  0  0  0
  5  7  1  0  0  0  0
  5  8  1  0  0  0  0
  8  9  1  0  0  0  0
  8 10  1  0  0  0  0
  8 11  1  0  0  0  0
 11 12  1  0  0  0  0
 11 13  1  0  0  0  0
 11 14  1  0  0  0  0
 14 15  1  0  0  0  0
 14 16  1  0  0  0  0
 14 17  1  0  0  0  0
 17 18  1  0  0  0  0
 17 19  1  0  0  0  0
 17 20  1  0  0  0  0
M  END
> <VConfSearch Rank>
154

> <Conf_Id>
26

> <Delta U+W>
2.809

> <U+W>
-8.969

> <U>
49.216

> <W>
-58.185

> <W(PB)>
-60.088

> <W(SA)>
1.903

> <Valence>
2.929

> <Coulomb>
46.006

> <VdW>
0.281

> <VdW6>
-4.909

> <VdW12>
5.190

> <Bond>
0.156

> <Angle>
0.974

> <Pdih>
1.799

> <Idih>
0.000

> <Tether>
0.000

$$$$
VeraChem MOL file


 20 19  0  0  0  0  0  0  0  0999 V2000     
   20.4354   17.6476   24.3160 N   0  3  0  0  0  0  0  0  0  0  0  0
   20.1916   18.5592   24.7139 H   0  0  0  0  0  0  0  0  0  0  0  0
   19.6633   17.0082   24.5286 H   0  0  0  0  0  0  0  0  0  0  0  0
   21.2555   17.3057   24.8278 H   0  0  0  0  0  0  0  0  0  0  0  0
   20.6983   17.7381   22.8255 C   0  0  0  0  0  0  0  0  0  0  0  0
   20.9814   16.7415   22.4761 H   0  0  0  0  0  0  0  0  0  0  0  0
   21.5496   18.4061   22.6704 H   0  0  0  0  0  0  0  0  0  0  0  0
   19.4882   18.2409   22.0123 C   0  0  0  0  0  0  0  0  0  0  0  0
   19.7390   18.2025   20.9445 H   0  0  0  0  0  0  0  0  0  0  0  0
   18.6500   17.5449   22.1481 H   0  0  0  0  0  0  0  0  0  0  0  0
   19.0277   19.6741   22.3878 C   0  0  0  0  0  0  0  0  0  0  0  0
   18.6243   19.6702   23.4093 H   0  0  0  0  0  0  0  0  0  0  0  0
   18.1880   19.9571   21.7382 H   0  0  0  0  0  0  0  0  0  0  0  0
   20.1307   20.7587   22.2877 C   0  0  0  0  0  0  0  0  0  0  0  0
   19.7029   21.7233   22.5949 H   0  0  0  0  0  0  0  0  0  0  0  0
   20.9387   20.5466   23.0009 H   0  0  0  0  0  0  0  0  0  0  0  0
   20.7189   20.9055   20.8659 C   0  0  0  0  0  0  0  0  0  0  0  0
   19.9284   21.1018   20.1300 H   0  0  0  0  0  0  0  0  0  0  0  0
   21.4282   21.7423   20.8277 H   0  0  0  0  0  0  0  0  0  0  0  0
   21.2586   20.0013   20.5580 H   0  0  0  0  0  0  0  0  0  0  0  0
  1  2  1  0  0  0  0
  1  3  1  0  0  0  0
  1  4  1  0  0  0  0
  1  5  1  0  0  0  0
  5  6  1  0  0  0  0
  5  7  1  0  0  0  0
  5  8  1  0  0  0  0
  8  9  1  0  0  0  0
  8 10  1  0  0  0  0
  8 11  1  0  0  0  0
 11 12  1  0  0  0  0
 11 13  1  0  0  0  0
 11 14  1  0  0  0  0
 14 15  1  0  0  0  0
 14 16  1  0  0  0  0
 14 17  1  0  0  0  0
 17 18  1  0  0  0  0
 17 19  1  0  0  0  0
 17 20  1  0  0  0  0
M  END
> <VConfSearch Rank>
155

> <Conf_Id>
2

> <Delta U+W>
0.994

> <U+W>
-10.784

> <U>
47.562

> <W>
-58.346

> <W(PB)>
-60.221

> <W(SA)>
1.875

> <Valence>
2.149

> <Coulomb>
45.034

> <VdW>
0.378

> <VdW6>
-5.599

> <VdW12>
5.977

> <Bond>
0.185

> <Angle>
0.935

> <Pdih>
1.028

> <Idih>
0.000

> <Tether>
0.000

$$$$
VeraChem MOL file


 20 19  0  0  0  0  0  0  0  0999 V2000     
   19.9105   21.0150   23.8956 N   0  3  0  0  0  0  0  0  0  0  0  0
   20.4884   21.0536   24.7409 H   0  0  0  0  0  0  0  0  0  0  0  0
   20.5032   21.3002   23.1105 H   0  0  0  0  0  0  0  0  0  0  0  0
   19.1831   21.7303   23.9985 H   0  0  0  0  0  0  0  0  0  0  0  0
   19.3186   19.6359   23.6797 C   0  0  0  0  0  0  0  0  0  0  0  0
   18.6905   19.6716   22.7858 H   0  0  0  0  0  0  0  0  0  0  0  0
   18.6770   19.4111   24.5361 H   0  0  0  0  0  0  0  0  0  0  0  0
   20.3767   18.5244   23.5274 C   0  0  0  0  0  0  0  0  0  0  0  0
   20.9798   18.4744   24.4436 H   0  0  0  0  0  0  0  0  0  0  0  0
   19.8648   17.5564   23.4530 H   0  0  0  0  0  0  0  0  0  0  0  0
   21.3166   18.7115   22.3073 C   0  0  0  0  0  0  0  0  0  0  0  0
   22.0099   17.8603   22.2613 H   0  0  0  0  0  0  0  0  0  0  0  0
   21.9453   19.5980   22.4654 H   0  0  0  0  0  0  0  0  0  0  0  0
   20.5924   18.8463   20.9433 C   0  0  0  0  0  0  0  0  0  0  0  0
   19.9654   19.7481   20.9330 H   0  0  0  0  0  0  0  0  0  0  0  0
   21.3474   18.9951   20.1586 H   0  0  0  0  0  0  0  0  0  0  0  0
   19.7340   17.6134   20.5804 C   0  0  0  0  0  0  0  0  0  0  0  0
   18.8934   17.4895   21.2744 H   0  0  0  0  0  0  0  0  0  0  0  0
   19.3158   17.7195   19.5711 H   0  0  0  0  0  0  0  0  0  0  0  0
   20.3345   16.6947   20.5998 H   0  0  0  0  0  0  0  0  0  0  0  0
  1  2  1  0  0  0  0
  1  3  1  0  0  0  0
  1  4  1  0  0  0  0
  1  5  1  0  0  0  0
  5  6  1  0  0  0  0
  5  7  1  0  0  0  0
  5  8  1  0  0  0  0
  8  9  1  0  0  0  0
  8 10  1  0  0  0  0
  8 11  1  0  0  0  0
 11 12  1  0  0  0  0
 11 13  1  0  0  0  0
 11 14  1  0  0  0  0
 14 15  1  0  0  0  0
 14 16  1  0  0  0  0
 14 17  1  0  0  0  0
 17 18  1  0  0  0  0
 17 19  1  0  0  0  0
 17 20  1  0  0  0  0
M  END
> <VConfSearch Rank>
156

> <Conf_Id>
1

> <Delta U+W>
1.032

> <U+W>
-10.746

> <U>
47.562

> <W>
-58.308

> <W(PB)>
-60.184

> <W(SA)>
1.877

> <Valence>
2.149

> <Coulomb>
45.035

> <VdW>
0.378

> <VdW6>
-5.599

> <VdW12>
5.978

> <Bond>
0.185

> <Angle>
0.935

> <Pdih>
1.028

> <Idih>
0.000

> <Tether>
0.000

$$$$
VeraChem MOL file


 20 19  0  0  0  0  0  0  0  0999 V2000     
   19.7364   17.3910   23.9772 N   0  3  0  0  0  0  0  0  0  0  0  0
   19.7385   17.5908   24.9823 H   0  0  0  0  0  0  0  0  0  0  0  0
   18.8552   17.7503   23.5989 H   0  0  0  0  0  0  0  0  0  0  0  0
   19.7117   16.3710   23.8761 H   0  0  0  0  0  0  0  0  0  0  0  0
   20.9384   17.9971   23.2788 C   0  0  0  0  0  0  0  0  0  0  0  0
   20.8891   17.7209   22.2244 H   0  0  0  0  0  0  0  0  0  0  0  0
   21.8332   17.5358   23.7055 H   0  0  0  0  0  0  0  0  0  0  0  0
   21.0392   19.5301   23.4286 C   0  0  0  0  0  0  0  0  0  0  0  0
   21.0764   19.7656   24.5005 H   0  0  0  0  0  0  0  0  0  0  0  0
   21.9953   19.8740   23.0123 H   0  0  0  0  0  0  0  0  0  0  0  0
   19.8734   20.3243   22.7803 C   0  0  0  0  0  0  0  0  0  0  0  0
   19.8109   21.2998   23.2822 H   0  0  0  0  0  0  0  0  0  0  0  0
   18.9124   19.8323   22.9778 H   0  0  0  0  0  0  0  0  0  0  0  0
   20.0277   20.5945   21.2613 C   0  0  0  0  0  0  0  0  0  0  0  0
   19.1965   21.2377   20.9398 H   0  0  0  0  0  0  0  0  0  0  0  0
   20.9448   21.1719   21.0788 H   0  0  0  0  0  0  0  0  0  0  0  0
   20.0353   19.3261   20.3798 C   0  0  0  0  0  0  0  0  0  0  0  0
   19.1896   18.6687   20.6192 H   0  0  0  0  0  0  0  0  0  0  0  0
   19.9585   19.5980   19.3191 H   0  0  0  0  0  0  0  0  0  0  0  0
   20.9669   18.7609   20.5012 H   0  0  0  0  0  0  0  0  0  0  0  0
  1  2  1  0  0  0  0
  1  3  1  0  0  0  0
  1  4  1  0  0  0  0
  1  5  1  0  0  0  0
  5  6  1  0  0  0  0
  5  7  1  0  0  0  0
  5  8  1  0  0  0  0
  8  9  1  0  0  0  0
  8 10  1  0  0  0  0
  8 11  1  0  0  0  0
 11 12  1  0  0  0  0
 11 13  1  0  0  0  0
 11 14  1  0  0  0  0
 14 15  1  0  0  0  0
 14 16  1  0  0  0  0
 14 17  1  0  0  0  0
 17 18  1  0  0  0  0
 17 19  1  0  0  0  0
 17 20  1  0  0  0  0
M  END
> <VConfSearch Rank>
157

> <Conf_Id>
80

> <Delta U+W>
2.920

> <U+W>
-8.857

> <U>
49.434

> <W>
-58.292

> <W(PB)>
-60.170

> <W(SA)>
1.879

> <Valence>
3.798

> <Coulomb>
45.253

> <VdW>
0.384

> <VdW6>
-5.595

> <VdW12>
5.979

> <Bond>
0.198

> <Angle>
1.368

> <Pdih>
2.231

> <Idih>
0.000

> <Tether>
0.000

$$$$
VeraChem MOL file


 20 19  0  0  0  0  0  0  0  0999 V2000     
   19.8341   21.3342   21.6106 N   0  3  0  0  0  0  0  0  0  0  0  0
   19.2620   21.4303   20.7660 H   0  0  0  0  0  0  0  0  0  0  0  0
   19.9460   22.2747   22.0034 H   0  0  0  0  0  0  0  0  0  0  0  0
   20.7630   21.0219   21.3133 H   0  0  0  0  0  0  0  0  0  0  0  0
   19.2107   20.3778   22.6089 C   0  0  0  0  0  0  0  0  0  0  0  0
   18.2470   20.7983   22.9087 H   0  0  0  0  0  0  0  0  0  0  0  0
   19.8522   20.3473   23.4909 H   0  0  0  0  0  0  0  0  0  0  0  0
   18.9908   18.9540   22.0547 C   0  0  0  0  0  0  0  0  0  0  0  0
   18.4218   18.3635   22.7849 H   0  0  0  0  0  0  0  0  0  0  0  0
   18.3507   19.0298   21.1657 H   0  0  0  0  0  0  0  0  0  0  0  0
   20.2916   18.1970   21.6736 C   0  0  0  0  0  0  0  0  0  0  0  0
   20.9924   18.8662   21.1581 H   0  0  0  0  0  0  0  0  0  0  0  0
   20.0282   17.4258   20.9365 H   0  0  0  0  0  0  0  0  0  0  0  0
   21.0070   17.4864   22.8514 C   0  0  0  0  0  0  0  0  0  0  0  0
   20.3312   16.7474   23.3040 H   0  0  0  0  0  0  0  0  0  0  0  0
   21.8528   16.9138   22.4454 H   0  0  0  0  0  0  0  0  0  0  0  0
   21.5388   18.4355   23.9479 C   0  0  0  0  0  0  0  0  0  0  0  0
   20.7197   18.8620   24.5388 H   0  0  0  0  0  0  0  0  0  0  0  0
   22.1883   17.8889   24.6438 H   0  0  0  0  0  0  0  0  0  0  0  0
   22.1263   19.2556   23.5153 H   0  0  0  0  0  0  0  0  0  0  0  0
  1  2  1  0  0  0  0
  1  3  1  0  0  0  0
  1  4  1  0  0  0  0
  1  5  1  0  0  0  0
  5  6  1  0  0  0  0
  5  7  1  0  0  0  0
  5  8  1  0  0  0  0
  8  9  1  0  0  0  0
  8 10  1  0  0  0  0
  8 11  1  0  0  0  0
 11 12  1  0  0  0  0
 11 13  1  0  0  0  0
 11 14  1  0  0  0  0
 14 15  1  0  0  0  0
 14 16  1  0  0  0  0
 14 17  1  0  0  0  0
 17 18  1  0  0  0  0
 17 19  1  0  0  0  0
 17 20  1  0  0  0  0
M  END
> <VConfSearch Rank>
158

> <Conf_Id>
65

> <Delta U+W>
2.949

> <U+W>
-8.829

> <U>
49.435

> <W>
-58.263

> <W(PB)>
-60.125

> <W(SA)>
1.862

> <Valence>
3.797

> <Coulomb>
45.253

> <VdW>
0.384

> <VdW6>
-5.596

> <VdW12>
5.980

> <Bond>
0.198

> <Angle>
1.369

> <Pdih>
2.230

> <Idih>
0.000

> <Tether>
0.000

$$$$
VeraChem MOL file


 20 19  0  0  0  0  0  0  0  0999 V2000     
   19.3638   19.4461   24.2680 N   0  3  0  0  0  0  0  0  0  0  0  0
   18.5657   19.9143   24.7102 H   0  0  0  0  0  0  0  0  0  0  0  0
   18.9880   18.7630   23.6033 H   0  0  0  0  0  0  0  0  0  0  0  0
   19.8469   18.9216   25.0042 H   0  0  0  0  0  0  0  0  0  0  0  0
   20.2878   20.4341   23.5826 C   0  0  0  0  0  0  0  0  0  0  0  0
   20.6465   21.1229   24.3522 H   0  0  0  0  0  0  0  0  0  0  0  0
   19.7087   21.0097   22.8556 H   0  0  0  0  0  0  0  0  0  0  0  0
   21.4996   19.7805   22.8877 C   0  0  0  0  0  0  0  0  0  0  0  0
   22.2853   20.5426   22.8009 H   0  0  0  0  0  0  0  0  0  0  0  0
   21.9168   18.9938   23.5301 H   0  0  0  0  0  0  0  0  0  0  0  0
   21.2241   19.2208   21.4661 C   0  0  0  0  0  0  0  0  0  0  0  0
   22.1768   18.8391   21.0734 H   0  0  0  0  0  0  0  0  0  0  0  0
   20.9355   20.0384   20.7912 H   0  0  0  0  0  0  0  0  0  0  0  0
   20.1816   18.0762   21.3911 C   0  0  0  0  0  0  0  0  0  0  0  0
   20.4946   17.3684   20.6105 H   0  0  0  0  0  0  0  0  0  0  0  0
   20.1753   17.5001   22.3262 H   0  0  0  0  0  0  0  0  0  0  0  0
   18.7595   18.5718   21.0366 C   0  0  0  0  0  0  0  0  0  0  0  0
   18.3974   19.3385   21.7299 H   0  0  0  0  0  0  0  0  0  0  0  0
   18.7423   19.0061   20.0284 H   0  0  0  0  0  0  0  0  0  0  0  0
   18.0450   17.7384   21.0490 H   0  0  0  0  0  0  0  0  0  0  0  0
  1  2  1  0  0  0  0
  1  3  1  0  0  0  0
  1  4  1  0  0  0  0
  1  5  1  0  0  0  0
  5  6  1  0  0  0  0
  5  7  1  0  0  0  0
  5  8  1  0  0  0  0
  8  9  1  0  0  0  0
  8 10  1  0  0  0  0
  8 11  1  0  0  0  0
 11 12  1  0  0  0  0
 11 13  1  0  0  0  0
 11 14  1  0  0  0  0
 14 15  1  0  0  0  0
 14 16  1  0  0  0  0
 14 17  1  0  0  0  0
 17 18  1  0  0  0  0
 17 19  1  0  0  0  0
 17 20  1  0  0  0  0
M  END
> <VConfSearch Rank>
159

> <Conf_Id>
77

> <Delta U+W>
5.366

> <U+W>
-6.412

> <U>
51.542

> <W>
-57.954

> <W(PB)>
-59.811

> <W(SA)>
1.857

> <Valence>
5.347

> <Coulomb>
45.870

> <VdW>
0.325

> <VdW6>
-6.161

> <VdW12>
6.486

> <Bond>
0.201

> <Angle>
1.484

> <Pdih>
3.662

> <Idih>
0.000

> <Tether>
0.000

$$$$
VeraChem MOL file


 20 19  0  0  0  0  0  0  0  0999 V2000     
   19.2082   17.6427   21.4697 N   0  3  0  0  0  0  0  0  0  0  0  0
   18.7578   17.9594   20.6053 H   0  0  0  0  0  0  0  0  0  0  0  0
   20.2178   17.7722   21.3526 H   0  0  0  0  0  0  0  0  0  0  0  0
   19.0354   16.6345   21.5439 H   0  0  0  0  0  0  0  0  0  0  0  0
   18.6911   18.3939   22.6813 C   0  0  0  0  0  0  0  0  0  0  0  0
   19.1537   17.9736   23.5783 H   0  0  0  0  0  0  0  0  0  0  0  0
   17.6149   18.2090   22.7363 H   0  0  0  0  0  0  0  0  0  0  0  0
   18.9385   19.9152   22.6279 C   0  0  0  0  0  0  0  0  0  0  0  0
   18.7272   20.2910   21.6179 H   0  0  0  0  0  0  0  0  0  0  0  0
   18.2019   20.3961   23.2851 H   0  0  0  0  0  0  0  0  0  0  0  0
   20.3499   20.3721   23.0848 C   0  0  0  0  0  0  0  0  0  0  0  0
   20.5043   20.1114   24.1410 H   0  0  0  0  0  0  0  0  0  0  0  0
   20.3670   21.4703   23.0486 H   0  0  0  0  0  0  0  0  0  0  0  0
   21.5303   19.8458   22.2290 C   0  0  0  0  0  0  0  0  0  0  0  0
   21.2084   19.6771   21.1925 H   0  0  0  0  0  0  0  0  0  0  0  0
   22.2999   20.6287   22.1753 H   0  0  0  0  0  0  0  0  0  0  0  0
   22.1888   18.5756   22.8179 C   0  0  0  0  0  0  0  0  0  0  0  0
   22.9808   18.2068   22.1532 H   0  0  0  0  0  0  0  0  0  0  0  0
   22.6495   18.7951   23.7899 H   0  0  0  0  0  0  0  0  0  0  0  0
   21.4703   17.7634   22.9716 H   0  0  0  0  0  0  0  0  0  0  0  0
  1  2  1  0  0  0  0
  1  3  1  0  0  0  0
  1  4  1  0  0  0  0
  1  5  1  0  0  0  0
  5  6  1  0  0  0  0
  5  7  1  0  0  0  0
  5  8  1  0  0  0  0
  8  9  1  0  0  0  0
  8 10  1  0  0  0  0
  8 11  1  0  0  0  0
 11 12  1  0  0  0  0
 11 13  1  0  0  0  0
 11 14  1  0  0  0  0
 14 15  1  0  0  0  0
 14 16  1  0  0  0  0
 14 17  1  0  0  0  0
 17 18  1  0  0  0  0
 17 19  1  0  0  0  0
 17 20  1  0  0  0  0
M  END
> <VConfSearch Rank>
160

> <Conf_Id>
67

> <Delta U+W>
5.353

> <U+W>
-6.425

> <U>
51.541

> <W>
-57.966

> <W(PB)>
-59.821

> <W(SA)>
1.855

> <Valence>
5.347

> <Coulomb>
45.870

> <VdW>
0.325

> <VdW6>
-6.161

> <VdW12>
6.486

> <Bond>
0.201

> <Angle>
1.485

> <Pdih>
3.662

> <Idih>
0.000

> <Tether>
0.000

$$$$
VeraChem MOL file


 20 19  0  0  0  0  0  0  0  0999 V2000     
   20.0128   17.4068   19.7525 N   0  3  0  0  0  0  0  0  0  0  0  0
   19.1073   16.9556   19.9160 H   0  0  0  0  0  0  0  0  0  0  0  0
   20.0795   17.5827   18.7445 H   0  0  0  0  0  0  0  0  0  0  0  0
   20.7376   16.7197   19.9827 H   0  0  0  0  0  0  0  0  0  0  0  0
   20.1643   18.6816   20.5579 C   0  0  0  0  0  0  0  0  0  0  0  0
   19.3817   19.3761   20.2408 H   0  0  0  0  0  0  0  0  0  0  0  0
   21.1344   19.1225   20.3126 H   0  0  0  0  0  0  0  0  0  0  0  0
   20.0689   18.4524   22.0769 C   0  0  0  0  0  0  0  0  0  0  0  0
   19.0997   17.9949   22.3168 H   0  0  0  0  0  0  0  0  0  0  0  0
   20.8464   17.7421   22.3884 H   0  0  0  0  0  0  0  0  0  0  0  0
   20.2281   19.7746   22.8599 C   0  0  0  0  0  0  0  0  0  0  0  0
   19.4519   20.4847   22.5420 H   0  0  0  0  0  0  0  0  0  0  0  0
   21.1965   20.2322   22.6136 H   0  0  0  0  0  0  0  0  0  0  0  0
   20.1339   19.5566   24.3867 C   0  0  0  0  0  0  0  0  0  0  0  0
   19.1657   19.1009   24.6377 H   0  0  0  0  0  0  0  0  0  0  0  0
   20.9102   18.8485   24.7093 H   0  0  0  0  0  0  0  0  0  0  0  0
   20.2935   20.8803   25.1648 C   0  0  0  0  0  0  0  0  0  0  0  0
   19.5097   21.5977   24.8888 H   0  0  0  0  0  0  0  0  0  0  0  0
   20.2237   20.7052   26.2463 H   0  0  0  0  0  0  0  0  0  0  0  0
   21.2678   21.3433   24.9611 H   0  0  0  0  0  0  0  0  0  0  0  0
  1  2  1  0  0  0  0
  1  3  1  0  0  0  0
  1  4  1  0  0  0  0
  1  5  1  0  0  0  0
  5  6  1  0  0  0  0
  5  7  1  0  0  0  0
  5  8  1  0  0  0  0
  8  9  1  0  0  0  0
  8 10  1  0  0  0  0
  8 11  1  0  0  0  0
 11 12  1  0  0  0  0
 11 13  1  0  0  0  0
 11 14  1  0  0  0  0
 14 15  1  0  0  0  0
 14 16  1  0  0  0  0
 14 17  1  0  0  0  0
 17 18  1  0  0  0  0
 17 19  1  0  0  0  0
 17 20  1  0  0  0  0
M  END
> <VConfSearch Rank>
161

> <Conf_Id>
72

> <Delta U+W>
0.000

> <U+W>
-11.778

> <U>
45.772

> <W>
-57.550

> <W(PB)>
-59.511

> <W(SA)>
1.961

> <Valence>
1.299

> <Coulomb>
44.177

> <VdW>
0.297

> <VdW6>
-3.490

> <VdW12>
3.786

> <Bond>
0.096

> <Angle>
0.381

> <Pdih>
0.822

> <Idih>
0.000

> <Tether>
0.000

$$$$
VeraChem MOL file


 20 19  0  0  0  0  0  0  0  0999 V2000     
   20.7415   16.4553   23.5758 N   0  3  0  0  0  0  0  0  0  0  0  0
   21.7476   16.6339   23.4969 H   0  0  0  0  0  0  0  0  0  0  0  0
   20.4791   16.6350   24.5501 H   0  0  0  0  0  0  0  0  0  0  0  0
   20.6039   15.4525   23.4111 H   0  0  0  0  0  0  0  0  0  0  0  0
   19.9383   17.3003   22.6077 C   0  0  0  0  0  0  0  0  0  0  0  0
   18.8836   17.0369   22.7247 H   0  0  0  0  0  0  0  0  0  0  0  0
   20.2473   17.0365   21.5926 H   0  0  0  0  0  0  0  0  0  0  0  0
   20.1218   18.8126   22.8280 C   0  0  0  0  0  0  0  0  0  0  0  0
   19.8255   19.0705   23.8534 H   0  0  0  0  0  0  0  0  0  0  0  0
   21.1854   19.0625   22.7258 H   0  0  0  0  0  0  0  0  0  0  0  0
   19.2833   19.6350   21.8212 C   0  0  0  0  0  0  0  0  0  0  0  0
   18.2336   19.3162   21.8853 H   0  0  0  0  0  0  0  0  0  0  0  0
   19.6115   19.4114   20.7965 H   0  0  0  0  0  0  0  0  0  0  0  0
   19.3497   21.1625   22.0642 C   0  0  0  0  0  0  0  0  0  0  0  0
   18.6493   21.6594   21.3782 H   0  0  0  0  0  0  0  0  0  0  0  0
   18.9995   21.3930   23.0801 H   0  0  0  0  0  0  0  0  0  0  0  0
   20.7604   21.7580   21.8530 C   0  0  0  0  0  0  0  0  0  0  0  0
   21.1455   21.5174   20.8535 H   0  0  0  0  0  0  0  0  0  0  0  0
   20.7339   22.8513   21.9476 H   0  0  0  0  0  0  0  0  0  0  0  0
   21.4733   21.3807   22.5965 H   0  0  0  0  0  0  0  0  0  0  0  0
  1  2  1  0  0  0  0
  1  3  1  0  0  0  0
  1  4  1  0  0  0  0
  1  5  1  0  0  0  0
  5  6  1  0  0  0  0
  5  7  1  0  0  0  0
  5  8  1  0  0  0  0
  8  9  1  0  0  0  0
  8 10  1  0  0  0  0
  8 11  1  0  0  0  0
 11 12  1  0  0  0  0
 11 13  1  0  0  0  0
 11 14  1  0  0  0  0
 14 15  1  0  0  0  0
 14 16  1  0  0  0  0
 14 17  1  0  0  0  0
 17 18  1  0  0  0  0
 17 19  1  0  0  0  0
 17 20  1  0  0  0  0
M  END
> <VConfSearch Rank>
162

> <Conf_Id>
42

> <Delta U+W>
0.508

> <U+W>
-11.270

> <U>
46.486

> <W>
-57.756

> <W(PB)>
-59.705

> <W(SA)>
1.949

> <Valence>
1.806

> <Coulomb>
44.248

> <VdW>
0.433

> <VdW6>
-4.089

> <VdW12>
4.522

> <Bond>
0.131

> <Angle>
0.628

> <Pdih>
1.047

> <Idih>
0.000

> <Tether>
0.000

$$$$
VeraChem MOL file


 20 19  0  0  0  0  0  0  0  0999 V2000     
   20.9142   20.8485   24.7720 N   0  3  0  0  0  0  0  0  0  0  0  0
   21.2843   21.6275   24.2184 H   0  0  0  0  0  0  0  0  0  0  0  0
   19.9296   21.0572   24.9654 H   0  0  0  0  0  0  0  0  0  0  0  0
   21.4040   20.8650   25.6728 H   0  0  0  0  0  0  0  0  0  0  0  0
   21.0832   19.5195   24.0636 C   0  0  0  0  0  0  0  0  0  0  0  0
   20.6967   18.7353   24.7203 H   0  0  0  0  0  0  0  0  0  0  0  0
   22.1532   19.3485   23.9180 H   0  0  0  0  0  0  0  0  0  0  0  0
   20.3599   19.4609   22.7062 C   0  0  0  0  0  0  0  0  0  0  0  0
   19.2906   19.6513   22.8622 H   0  0  0  0  0  0  0  0  0  0  0  0
   20.7398   20.2598   22.0556 H   0  0  0  0  0  0  0  0  0  0  0  0
   20.5610   18.0897   22.0188 C   0  0  0  0  0  0  0  0  0  0  0  0
   20.1393   17.2943   22.6489 H   0  0  0  0  0  0  0  0  0  0  0  0
   21.6376   17.8831   21.9407 H   0  0  0  0  0  0  0  0  0  0  0  0
   19.9407   18.0115   20.6025 C   0  0  0  0  0  0  0  0  0  0  0  0
   20.3773   18.7904   19.9618 H   0  0  0  0  0  0  0  0  0  0  0  0
   20.2181   17.0498   20.1486 H   0  0  0  0  0  0  0  0  0  0  0  0
   18.4001   18.1382   20.5982 C   0  0  0  0  0  0  0  0  0  0  0  0
   18.0758   19.1318   20.9313 H   0  0  0  0  0  0  0  0  0  0  0  0
   18.0050   17.9853   19.5855 H   0  0  0  0  0  0  0  0  0  0  0  0
   17.9400   17.3878   21.2542 H   0  0  0  0  0  0  0  0  0  0  0  0
  1  2  1  0  0  0  0
  1  3  1  0  0  0  0
  1  4  1  0  0  0  0
  1  5  1  0  0  0  0
  5  6  1  0  0  0  0
  5  7  1  0  0  0  0
  5  8  1  0  0  0  0
  8  9  1  0  0  0  0
  8 10  1  0  0  0  0
  8 11  1  0  0  0  0
 11 12  1  0  0  0  0
 11 13  1  0  0  0  0
 11 14  1  0  0  0  0
 14 15  1  0  0  0  0
 14 16  1  0  0  0  0
 14 17  1  0  0  0  0
 17 18  1  0  0  0  0
 17 19  1  0  0  0  0
 17 20  1  0  0  0  0
M  END
> <VConfSearch Rank>
163

> <Conf_Id>
41

> <Delta U+W>
0.515

> <U+W>
-11.263

> <U>
46.486

> <W>
-57.749

> <W(PB)>
-59.685

> <W(SA)>
1.936

> <Valence>
1.806

> <Coulomb>
44.248

> <VdW>
0.433

> <VdW6>
-4.089

> <VdW12>
4.522

> <Bond>
0.131

> <Angle>
0.628

> <Pdih>
1.047

> <Idih>
0.000

> <Tether>
0.000

$$$$
VeraChem MOL file


 20 19  0  0  0  0  0  0  0  0999 V2000     
   21.4688   16.8114   21.7276 N   0  3  0  0  0  0  0  0  0  0  0  0
   22.3279   16.2787   21.5551 H   0  0  0  0  0  0  0  0  0  0  0  0
   21.1799   16.6078   22.6889 H   0  0  0  0  0  0  0  0  0  0  0  0
   20.7500   16.4260   21.1072 H   0  0  0  0  0  0  0  0  0  0  0  0
   21.6730   18.2971   21.5013 C   0  0  0  0  0  0  0  0  0  0  0  0
   22.0207   18.4299   20.4732 H   0  0  0  0  0  0  0  0  0  0  0  0
   22.4645   18.6379   22.1742 H   0  0  0  0  0  0  0  0  0  0  0  0
   20.4038   19.1431   21.7229 C   0  0  0  0  0  0  0  0  0  0  0  0
   20.6273   20.1739   21.4212 H   0  0  0  0  0  0  0  0  0  0  0  0
   19.6055   18.7871   21.0583 H   0  0  0  0  0  0  0  0  0  0  0  0
   19.9196   19.1215   23.1947 C   0  0  0  0  0  0  0  0  0  0  0  0
   20.7151   19.5003   23.8513 H   0  0  0  0  0  0  0  0  0  0  0  0
   19.7324   18.0844   23.5028 H   0  0  0  0  0  0  0  0  0  0  0  0
   18.6242   19.9363   23.4295 C   0  0  0  0  0  0  0  0  0  0  0  0
   17.8213   19.5523   22.7847 H   0  0  0  0  0  0  0  0  0  0  0  0
   18.2899   19.7755   24.4641 H   0  0  0  0  0  0  0  0  0  0  0  0
   18.7991   21.4542   23.1945 C   0  0  0  0  0  0  0  0  0  0  0  0
   19.0119   21.6784   22.1420 H   0  0  0  0  0  0  0  0  0  0  0  0
   17.8821   21.9928   23.4664 H   0  0  0  0  0  0  0  0  0  0  0  0
   19.6176   21.8569   23.8050 H   0  0  0  0  0  0  0  0  0  0  0  0
  1  2  1  0  0  0  0
  1  3  1  0  0  0  0
  1  4  1  0  0  0  0
  1  5  1  0  0  0  0
  5  6  1  0  0  0  0
  5  7  1  0  0  0  0
  5  8  1  0  0  0  0
  8  9  1  0  0  0  0
  8 10  1  0  0  0  0
  8 11  1  0  0  0  0
 11 12  1  0  0  0  0
 11 13  1  0  0  0  0
 11 14  1  0  0  0  0
 14 15  1  0  0  0  0
 14 16  1  0  0  0  0
 14 17  1  0  0  0  0
 17 18  1  0  0  0  0
 17 19  1  0  0  0  0
 17 20  1  0  0  0  0
M  END
> <VConfSearch Rank>
164

> <Conf_Id>
33

> <Delta U+W>
0.703

> <U+W>
-11.075

> <U>
47.080

> <W>
-58.154

> <W(PB)>
-60.053

> <W(SA)>
1.899

> <Valence>
1.943

> <Coulomb>
44.572

> <VdW>
0.565

> <VdW6>
-4.575

> <VdW12>
5.139

> <Bond>
0.158

> <Angle>
0.700

> <Pdih>
1.085

> <Idih>
0.000

> <Tether>
0.000

$$$$
VeraChem MOL file


 20 19  0  0  0  0  0  0  0  0999 V2000     
   18.1379   20.9969   22.1314 N   0  3  0  0  0  0  0  0  0  0  0  0
   17.8167   21.9522   21.9423 H   0  0  0  0  0  0  0  0  0  0  0  0
   17.4065   20.3643   21.7922 H   0  0  0  0  0  0  0  0  0  0  0  0
   18.1801   20.8927   23.1494 H   0  0  0  0  0  0  0  0  0  0  0  0
   19.4770   20.7140   21.4782 C   0  0  0  0  0  0  0  0  0  0  0  0
   20.2029   21.4347   21.8645 H   0  0  0  0  0  0  0  0  0  0  0  0
   19.3642   20.8878   20.4045 H   0  0  0  0  0  0  0  0  0  0  0  0
   19.9951   19.2809   21.7103 C   0  0  0  0  0  0  0  0  0  0  0  0
   19.2563   18.5593   21.3372 H   0  0  0  0  0  0  0  0  0  0  0  0
   20.8997   19.1459   21.1045 H   0  0  0  0  0  0  0  0  0  0  0  0
   20.3141   18.9937   23.1992 C   0  0  0  0  0  0  0  0  0  0  0  0
   19.4149   19.1656   23.8054 H   0  0  0  0  0  0  0  0  0  0  0  0
   21.0703   19.7050   23.5592 H   0  0  0  0  0  0  0  0  0  0  0  0
   20.8013   17.5470   23.4573 C   0  0  0  0  0  0  0  0  0  0  0  0
   20.8939   17.3949   24.5419 H   0  0  0  0  0  0  0  0  0  0  0  0
   20.0421   16.8315   23.1112 H   0  0  0  0  0  0  0  0  0  0  0  0
   22.1598   17.2259   22.7931 C   0  0  0  0  0  0  0  0  0  0  0  0
   22.9293   17.9466   23.0987 H   0  0  0  0  0  0  0  0  0  0  0  0
   22.5031   16.2252   23.0858 H   0  0  0  0  0  0  0  0  0  0  0  0
   22.0884   17.2416   21.6986 H   0  0  0  0  0  0  0  0  0  0  0  0
  1  2  1  0  0  0  0
  1  3  1  0  0  0  0
  1  4  1  0  0  0  0
  1  5  1  0  0  0  0
  5  6  1  0  0  0  0
  5  7  1  0  0  0  0
  5  8  1  0  0  0  0
  8  9  1  0  0  0  0
  8 10  1  0  0  0  0
  8 11  1  0  0  0  0
 11 12  1  0  0  0  0
 11 13  1  0  0  0  0
 11 14  1  0  0  0  0
 14 15  1  0  0  0  0
 14 16  1  0  0  0  0
 14 17  1  0  0  0  0
 17 18  1  0  0  0  0
 17 19  1  0  0  0  0
 17 20  1  0  0  0  0
M  END
> <VConfSearch Rank>
165

> <Conf_Id>
24

> <Delta U+W>
0.847

> <U+W>
-10.931

> <U>
47.080

> <W>
-58.011

> <W(PB)>
-59.914

> <W(SA)>
1.903

> <Valence>
1.943

> <Coulomb>
44.572

> <VdW>
0.565

> <VdW6>
-4.575

> <VdW12>
5.140

> <Bond>
0.158

> <Angle>
0.700

> <Pdih>
1.085

> <Idih>
0.000

> <Tether>
0.000

$$$$
VeraChem MOL file


 20 19  0  0  0  0  0  0  0  0999 V2000     
   20.7940   18.0136   24.8731 N   0  3  0  0  0  0  0  0  0  0  0  0
   21.3088   17.1365   25.0040 H   0  0  0  0  0  0  0  0  0  0  0  0
   21.4395   18.7748   25.1060 H   0  0  0  0  0  0  0  0  0  0  0  0
   20.0470   18.0269   25.5745 H   0  0  0  0  0  0  0  0  0  0  0  0
   20.2504   18.1428   23.4645 C   0  0  0  0  0  0  0  0  0  0  0  0
   19.5964   17.2875   23.2747 H   0  0  0  0  0  0  0  0  0  0  0  0
   21.0951   18.0903   22.7725 H   0  0  0  0  0  0  0  0  0  0  0  0
   19.4714   19.4515   23.2341 C   0  0  0  0  0  0  0  0  0  0  0  0
   18.6510   19.5137   23.9612 H   0  0  0  0  0  0  0  0  0  0  0  0
   20.1244   20.3108   23.4331 H   0  0  0  0  0  0  0  0  0  0  0  0
   18.8813   19.5542   21.8054 C   0  0  0  0  0  0  0  0  0  0  0  0
   18.3314   20.5011   21.7143 H   0  0  0  0  0  0  0  0  0  0  0  0
   18.1361   18.7581   21.6694 H   0  0  0  0  0  0  0  0  0  0  0  0
   19.9241   19.4617   20.6621 C   0  0  0  0  0  0  0  0  0  0  0  0
   20.4117   18.4773   20.6717 H   0  0  0  0  0  0  0  0  0  0  0  0
   19.3961   19.5266   19.7004 H   0  0  0  0  0  0  0  0  0  0  0  0
   20.9965   20.5734   20.7171 C   0  0  0  0  0  0  0  0  0  0  0  0
   21.6518   20.5192   19.8381 H   0  0  0  0  0  0  0  0  0  0  0  0
   20.5334   21.5685   20.7294 H   0  0  0  0  0  0  0  0  0  0  0  0
   21.6307   20.4777   21.6072 H   0  0  0  0  0  0  0  0  0  0  0  0
  1  2  1  0  0  0  0
  1  3  1  0  0  0  0
  1  4  1  0  0  0  0
  1  5  1  0  0  0  0
  5  6  1  0  0  0  0
  5  7  1  0  0  0  0
  5  8  1  0  0  0  0
  8  9  1  0  0  0  0
  8 10  1  0  0  0  0
  8 11  1  0  0  0  0
 11 12  1  0  0  0  0
 11 13  1  0  0  0  0
 11 14  1  0  0  0  0
 14 15  1  0  0  0  0
 14 16  1  0  0  0  0
 14 17  1  0  0  0  0
 17 18  1  0  0  0  0
 17 19  1  0  0  0  0
 17 20  1  0  0  0  0
M  END
> <VConfSearch Rank>
166

> <Conf_Id>
64

> <Delta U+W>
0.707

> <U+W>
-11.070

> <U>
47.077

> <W>
-58.148

> <W(PB)>
-60.054

> <W(SA)>
1.906

> <Valence>
2.039

> <Coulomb>
44.655

> <VdW>
0.383

> <VdW6>
-4.912

> <VdW12>
5.295

> <Bond>
0.159

> <Angle>
0.856

> <Pdih>
1.024

> <Idih>
0.000

> <Tether>
0.000

$$$$
VeraChem MOL file


 20 19  0  0  0  0  0  0  0  0999 V2000     
   20.8585   16.5459   23.3693 N   0  3  0  0  0  0  0  0  0  0  0  0
   20.2144   15.8096   23.0640 H   0  0  0  0  0  0  0  0  0  0  0  0
   21.6715   16.5123   22.7464 H   0  0  0  0  0  0  0  0  0  0  0  0
   21.1887   16.2831   24.3039 H   0  0  0  0  0  0  0  0  0  0  0  0
   20.1997   17.9106   23.3680 C   0  0  0  0  0  0  0  0  0  0  0  0
   20.9314   18.6370   23.7313 H   0  0  0  0  0  0  0  0  0  0  0  0
   19.3635   17.8830   24.0718 H   0  0  0  0  0  0  0  0  0  0  0  0
   19.6923   18.3364   21.9773 C   0  0  0  0  0  0  0  0  0  0  0  0
   20.5295   18.3555   21.2679 H   0  0  0  0  0  0  0  0  0  0  0  0
   18.9901   17.5791   21.6041 H   0  0  0  0  0  0  0  0  0  0  0  0
   18.9805   19.7122   21.9942 C   0  0  0  0  0  0  0  0  0  0  0  0
   18.0742   19.6372   22.6110 H   0  0  0  0  0  0  0  0  0  0  0  0
   18.6354   19.9473   20.9779 H   0  0  0  0  0  0  0  0  0  0  0  0
   19.8457   20.8863   22.5199 C   0  0  0  0  0  0  0  0  0  0  0  0
   19.2387   21.8024   22.5055 H   0  0  0  0  0  0  0  0  0  0  0  0
   20.1132   20.7192   23.5722 H   0  0  0  0  0  0  0  0  0  0  0  0
   21.1272   21.1253   21.6894 C   0  0  0  0  0  0  0  0  0  0  0  0
   20.8881   21.2747   20.6285 H   0  0  0  0  0  0  0  0  0  0  0  0
   21.6537   22.0208   22.0440 H   0  0  0  0  0  0  0  0  0  0  0  0
   21.8227   20.2806   21.7699 H   0  0  0  0  0  0  0  0  0  0  0  0
  1  2  1  0  0  0  0
  1  3  1  0  0  0  0
  1  4  1  0  0  0  0
  1  5  1  0  0  0  0
  5  6  1  0  0  0  0
  5  7  1  0  0  0  0
  5  8  1  0  0  0  0
  8  9  1  0  0  0  0
  8 10  1  0  0  0  0
  8 11  1  0  0  0  0
 11 12  1  0  0  0  0
 11 13  1  0  0  0  0
 11 14  1  0  0  0  0
 14 15  1  0  0  0  0
 14 16  1  0  0  0  0
 14 17  1  0  0  0  0
 17 18  1  0  0  0  0
 17 19  1  0  0  0  0
 17 20  1  0  0  0  0
M  END
> <VConfSearch Rank>
167

> <Conf_Id>
22

> <Delta U+W>
0.731

> <U+W>
-11.047

> <U>
47.078

> <W>
-58.125

> <W(PB)>
-60.031

> <W(SA)>
1.906

> <Valence>
2.039

> <Coulomb>
44.655

> <VdW>
0.383

> <VdW6>
-4.913

> <VdW12>
5.296

> <Bond>
0.159

> <Angle>
0.856

> <Pdih>
1.024

> <Idih>
0.000

> <Tether>
0.000

$$$$
VeraChem MOL file


 20 19  0  0  0  0  0  0  0  0999 V2000     
   19.2584   17.6706   20.4068 N   0  3  0  0  0  0  0  0  0  0  0  0
   19.6663   18.1503   19.5981 H   0  0  0  0  0  0  0  0  0  0  0  0
   19.6376   16.7185   20.4147 H   0  0  0  0  0  0  0  0  0  0  0  0
   18.2522   17.5881   20.2273 H   0  0  0  0  0  0  0  0  0  0  0  0
   19.5414   18.4039   21.7024 C   0  0  0  0  0  0  0  0  0  0  0  0
   19.0570   17.8552   22.5146 H   0  0  0  0  0  0  0  0  0  0  0  0
   19.0843   19.3934   21.6300 H   0  0  0  0  0  0  0  0  0  0  0  0
   21.0448   18.5494   21.9983 C   0  0  0  0  0  0  0  0  0  0  0  0
   21.5119   17.5568   21.9490 H   0  0  0  0  0  0  0  0  0  0  0  0
   21.5155   19.1529   21.2109 H   0  0  0  0  0  0  0  0  0  0  0  0
   21.3552   19.1692   23.3844 C   0  0  0  0  0  0  0  0  0  0  0  0
   22.4449   19.1392   23.5224 H   0  0  0  0  0  0  0  0  0  0  0  0
   20.9377   18.5402   24.1828 H   0  0  0  0  0  0  0  0  0  0  0  0
   20.8904   20.6381   23.5619 C   0  0  0  0  0  0  0  0  0  0  0  0
   21.5556   21.1247   24.2891 H   0  0  0  0  0  0  0  0  0  0  0  0
   21.0141   21.1935   22.6217 H   0  0  0  0  0  0  0  0  0  0  0  0
   19.4400   20.7784   24.0810 C   0  0  0  0  0  0  0  0  0  0  0  0
   18.7037   20.3968   23.3661 H   0  0  0  0  0  0  0  0  0  0  0  0
   19.3068   20.2393   25.0279 H   0  0  0  0  0  0  0  0  0  0  0  0
   19.2008   21.8340   24.2643 H   0  0  0  0  0  0  0  0  0  0  0  0
  1  2  1  0  0  0  0
  1  3  1  0  0  0  0
  1  4  1  0  0  0  0
  1  5  1  0  0  0  0
  5  6  1  0  0  0  0
  5  7  1  0  0  0  0
  5  8  1  0  0  0  0
  8  9  1  0  0  0  0
  8 10  1  0  0  0  0
  8 11  1  0  0  0  0
 11 12  1  0  0  0  0
 11 13  1  0  0  0  0
 11 14  1  0  0  0  0
 14 15  1  0  0  0  0
 14 16  1  0  0  0  0
 14 17  1  0  0  0  0
 17 18  1  0  0  0  0
 17 19  1  0  0  0  0
 17 20  1  0  0  0  0
M  END
> <VConfSearch Rank>
168

> <Conf_Id>
61

> <Delta U+W>
2.669

> <U+W>
-9.108

> <U>
48.916

> <W>
-58.025

> <W(PB)>
-59.935

> <W(SA)>
1.911

> <Valence>
3.785

> <Coulomb>
44.716

> <VdW>
0.415

> <VdW6>
-4.836

> <VdW12>
5.251

> <Bond>
0.175

> <Angle>
1.195

> <Pdih>
2.415

> <Idih>
0.000

> <Tether>
0.000

$$$$
VeraChem MOL file


 20 19  0  0  0  0  0  0  0  0999 V2000     
   19.0560   20.9845   21.8333 N   0  3  0  0  0  0  0  0  0  0  0  0
   18.9740   21.9894   22.0205 H   0  0  0  0  0  0  0  0  0  0  0  0
   18.3209   20.7475   21.1596 H   0  0  0  0  0  0  0  0  0  0  0  0
   18.8349   20.4972   22.7055 H   0  0  0  0  0  0  0  0  0  0  0  0
   20.4338   20.6205   21.3138 C   0  0  0  0  0  0  0  0  0  0  0  0
   21.1792   20.9470   22.0439 H   0  0  0  0  0  0  0  0  0  0  0  0
   20.5883   21.1922   20.3947 H   0  0  0  0  0  0  0  0  0  0  0  0
   20.6224   19.1198   21.0077 C   0  0  0  0  0  0  0  0  0  0  0  0
   19.7332   18.7246   20.4989 H   0  0  0  0  0  0  0  0  0  0  0  0
   21.4466   19.0272   20.2879 H   0  0  0  0  0  0  0  0  0  0  0  0
   20.9708   18.2487   22.2421 C   0  0  0  0  0  0  0  0  0  0  0  0
   21.8948   18.6223   22.7048 H   0  0  0  0  0  0  0  0  0  0  0  0
   21.1950   17.2321   21.8905 H   0  0  0  0  0  0  0  0  0  0  0  0
   19.8538   18.1728   23.3093 C   0  0  0  0  0  0  0  0  0  0  0  0
   19.7181   19.1535   23.7822 H   0  0  0  0  0  0  0  0  0  0  0  0
   18.9002   17.9034   22.8339 H   0  0  0  0  0  0  0  0  0  0  0  0
   20.1860   17.1397   24.4073 C   0  0  0  0  0  0  0  0  0  0  0  0
   19.3888   17.1051   25.1612 H   0  0  0  0  0  0  0  0  0  0  0  0
   20.2918   16.1324   23.9839 H   0  0  0  0  0  0  0  0  0  0  0  0
   21.1228   17.3953   24.9194 H   0  0  0  0  0  0  0  0  0  0  0  0
  1  2  1  0  0  0  0
  1  3  1  0  0  0  0
  1  4  1  0  0  0  0
  1  5  1  0  0  0  0
  5  6  1  0  0  0  0
  5  7  1  0  0  0  0
  5  8  1  0  0  0  0
  8  9  1  0  0  0  0
  8 10  1  0  0  0  0
  8 11  1  0  0  0  0
 11 12  1  0  0  0  0
 11 13  1  0  0  0  0
 11 14  1  0  0  0  0
 14 15  1  0  0  0  0
 14 16  1  0  0  0  0
 14 17  1  0  0  0  0
 17 18  1  0  0  0  0
 17 19  1  0  0  0  0
 17 20  1  0  0  0  0
M  END
> <VConfSearch Rank>
169

> <Conf_Id>
69

> <Delta U+W>
2.811

> <U+W>
-8.967

> <U>
49.216

> <W>
-58.183

> <W(PB)>
-60.064

> <W(SA)>
1.881

> <Valence>
2.929

> <Coulomb>
46.006

> <VdW>
0.281

> <VdW6>
-4.909

> <VdW12>
5.190

> <Bond>
0.156

> <Angle>
0.974

> <Pdih>
1.799

> <Idih>
0.000

> <Tether>
0.000

$$$$
VeraChem MOL file


 20 19  0  0  0  0  0  0  0  0999 V2000     
   19.6671   21.3693   22.9255 N   0  3  0  0  0  0  0  0  0  0  0  0
   20.5419   21.0797   22.4806 H   0  0  0  0  0  0  0  0  0  0  0  0
   19.0677   21.7572   22.1904 H   0  0  0  0  0  0  0  0  0  0  0  0
   19.8938   22.1411   23.5615 H   0  0  0  0  0  0  0  0  0  0  0  0
   18.9937   20.2213   23.6530 C   0  0  0  0  0  0  0  0  0  0  0  0
   18.0820   20.6221   24.1044 H   0  0  0  0  0  0  0  0  0  0  0  0
   19.6510   19.8863   24.4600 H   0  0  0  0  0  0  0  0  0  0  0  0
   18.6219   19.0264   22.7500 C   0  0  0  0  0  0  0  0  0  0  0  0
   17.8164   18.4701   23.2477 H   0  0  0  0  0  0  0  0  0  0  0  0
   18.1976   19.3873   21.8037 H   0  0  0  0  0  0  0  0  0  0  0  0
   19.7843   18.0369   22.4787 C   0  0  0  0  0  0  0  0  0  0  0  0
   19.3788   17.1760   21.9292 H   0  0  0  0  0  0  0  0  0  0  0  0
   20.1583   17.6410   23.4331 H   0  0  0  0  0  0  0  0  0  0  0  0
   20.9606   18.6350   21.6720 C   0  0  0  0  0  0  0  0  0  0  0  0
   20.5804   19.1281   20.7663 H   0  0  0  0  0  0  0  0  0  0  0  0
   21.4761   19.3982   22.2683 H   0  0  0  0  0  0  0  0  0  0  0  0
   21.9839   17.5510   21.2709 C   0  0  0  0  0  0  0  0  0  0  0  0
   21.5200   16.7838   20.6374 H   0  0  0  0  0  0  0  0  0  0  0  0
   22.8164   17.9928   20.7080 H   0  0  0  0  0  0  0  0  0  0  0  0
   22.4020   17.0556   22.1569 H   0  0  0  0  0  0  0  0  0  0  0  0
  1  2  1  0  0  0  0
  1  3  1  0  0  0  0
  1  4  1  0  0  0  0
  1  5  1  0  0  0  0
  5  6  1  0  0  0  0
  5  7  1  0  0  0  0
  5  8  1  0  0  0  0
  8  9  1  0  0  0  0
  8 10  1  0  0  0  0
  8 11  1  0  0  0  0
 11 12  1  0  0  0  0
 11 13  1  0  0  0  0
 11 14  1  0  0  0  0
 14 15  1  0  0  0  0
 14 16  1  0  0  0  0
 14 17  1  0  0  0  0
 17 18  1  0  0  0  0
 17 19  1  0  0  0  0
 17 20  1  0  0  0  0
M  END
> <VConfSearch Rank>
170

> <Conf_Id>
26

> <Delta U+W>
2.809

> <U+W>
-8.969

> <U>
49.216

> <W>
-58.185

> <W(PB)>
-60.088

> <W(SA)>
1.903

> <Valence>
2.929

> <Coulomb>
46.006

> <VdW>
0.281

> <VdW6>
-4.909

> <VdW12>
5.190

> <Bond>
0.156

> <Angle>
0.974

> <Pdih>
1.799

> <Idih>
0.000

> <Tether>
0.000

$$$$
VeraChem MOL file


 20 19  0  0  0  0  0  0  0  0999 V2000     
   22.4377   19.6266   21.8931 N   0  3  0  0  0  0  0  0  0  0  0  0
   22.2517   20.0906   22.7870 H   0  0  0  0  0  0  0  0  0  0  0  0
   23.1195   18.8833   22.0740 H   0  0  0  0  0  0  0  0  0  0  0  0
   22.8989   20.3137   21.2878 H   0  0  0  0  0  0  0  0  0  0  0  0
   21.1672   19.0859   21.2666 C   0  0  0  0  0  0  0  0  0  0  0  0
   21.4348   18.6347   20.3073 H   0  0  0  0  0  0  0  0  0  0  0  0
   20.4997   19.9290   21.0701 H   0  0  0  0  0  0  0  0  0  0  0  0
   20.4421   18.0412   22.1390 C   0  0  0  0  0  0  0  0  0  0  0  0
   19.5823   17.6494   21.5805 H   0  0  0  0  0  0  0  0  0  0  0  0
   21.1089   17.1841   22.3018 H   0  0  0  0  0  0  0  0  0  0  0  0
   19.9669   18.5863   23.5116 C   0  0  0  0  0  0  0  0  0  0  0  0
   20.8422   18.8253   24.1304 H   0  0  0  0  0  0  0  0  0  0  0  0
   19.4359   17.7860   24.0451 H   0  0  0  0  0  0  0  0  0  0  0  0
   19.0511   19.8346   23.4338 C   0  0  0  0  0  0  0  0  0  0  0  0
   18.7947   20.1456   24.4562 H   0  0  0  0  0  0  0  0  0  0  0  0
   19.5955   20.6788   22.9896 H   0  0  0  0  0  0  0  0  0  0  0  0
   17.7442   19.5880   22.6463 C   0  0  0  0  0  0  0  0  0  0  0  0
   17.1882   18.7370   23.0606 H   0  0  0  0  0  0  0  0  0  0  0  0
   17.0931   20.4703   22.6958 H   0  0  0  0  0  0  0  0  0  0  0  0
   17.9446   19.3849   21.5869 H   0  0  0  0  0  0  0  0  0  0  0  0
  1  2  1  0  0  0  0
  1  3  1  0  0  0  0
  1  4  1  0  0  0  0
  1  5  1  0  0  0  0
  5  6  1  0  0  0  0
  5  7  1  0  0  0  0
  5  8  1  0  0  0  0
  8  9  1  0  0  0  0
  8 10  1  0  0  0  0
  8 11  1  0  0  0  0
 11 12  1  0  0  0  0
 11 13  1  0  0  0  0
 11 14  1  0  0  0  0
 14 15  1  0  0  0  0
 14 16  1  0  0  0  0
 14 17  1  0  0  0  0
 17 18  1  0  0  0  0
 17 19  1  0  0  0  0
 17 20  1  0  0  0  0
M  END
> <VConfSearch Rank>
171

> <Conf_Id>
2

> <Delta U+W>
0.994

> <U+W>
-10.784

> <U>
47.562

> <W>
-58.346

> <W(PB)>
-60.221

> <W(SA)>
1.875

> <Valence>
2.149

> <Coulomb>
45.034

> <VdW>
0.378

> <VdW6>
-5.599

> <VdW12>
5.977

> <Bond>
0.185

> <Angle>
0.935

> <Pdih>
1.028

> <Idih>
0.000

> <Tether>
0.000

$$$$
VeraChem MOL file


 20 19  0  0  0  0  0  0  0  0999 V2000     
   19.7679   17.2877   24.0349 N   0  3  0  0  0  0  0  0  0  0  0  0
   18.8280   17.2202   24.4375 H   0  0  0  0  0  0  0  0  0  0  0  0
   19.7249   16.8811   23.0959 H   0  0  0  0  0  0  0  0  0  0  0  0
   20.3771   16.6838   24.5965 H   0  0  0  0  0  0  0  0  0  0  0  0
   20.2665   18.7193   24.0041 C   0  0  0  0  0  0  0  0  0  0  0  0
   21.2809   18.7173   23.5968 H   0  0  0  0  0  0  0  0  0  0  0  0
   20.3164   19.0769   25.0362 H   0  0  0  0  0  0  0  0  0  0  0  0
   19.3759   19.6679   23.1764 C   0  0  0  0  0  0  0  0  0  0  0  0
   18.3691   19.6887   23.6141 H   0  0  0  0  0  0  0  0  0  0  0  0
   19.7643   20.6901   23.2708 H   0  0  0  0  0  0  0  0  0  0  0  0
   19.2726   19.2868   21.6760 C   0  0  0  0  0  0  0  0  0  0  0  0
   18.6496   20.0330   21.1639 H   0  0  0  0  0  0  0  0  0  0  0  0
   18.7344   18.3343   21.5793 H   0  0  0  0  0  0  0  0  0  0  0  0
   20.6315   19.1727   20.9389 C   0  0  0  0  0  0  0  0  0  0  0  0
   21.2340   18.3643   21.3748 H   0  0  0  0  0  0  0  0  0  0  0  0
   20.4417   18.8792   19.8970 H   0  0  0  0  0  0  0  0  0  0  0  0
   21.4446   20.4871   20.9453 C   0  0  0  0  0  0  0  0  0  0  0  0
   21.7573   20.7623   21.9603 H   0  0  0  0  0  0  0  0  0  0  0  0
   22.3526   20.3805   20.3378 H   0  0  0  0  0  0  0  0  0  0  0  0
   20.8579   21.3163   20.5292 H   0  0  0  0  0  0  0  0  0  0  0  0
  1  2  1  0  0  0  0
  1  3  1  0  0  0  0
  1  4  1  0  0  0  0
  1  5  1  0  0  0  0
  5  6  1  0  0  0  0
  5  7  1  0  0  0  0
  5  8  1  0  0  0  0
  8  9  1  0  0  0  0
  8 10  1  0  0  0  0
  8 11  1  0  0  0  0
 11 12  1  0  0  0  0
 11 13  1  0  0  0  0
 11 14  1  0  0  0  0
 14 15  1  0  0  0  0
 14 16  1  0  0  0  0
 14 17  1  0  0  0  0
 17 18  1  0  0  0  0
 17 19  1  0  0  0  0
 17 20  1  0  0  0  0
M  END
> <VConfSearch Rank>
172

> <Conf_Id>
1

> <Delta U+W>
1.032

> <U+W>
-10.746

> <U>
47.562

> <W>
-58.308

> <W(PB)>
-60.184

> <W(SA)>
1.877

> <Valence>
2.149

> <Coulomb>
45.035

> <VdW>
0.378

> <VdW6>
-5.599

> <VdW12>
5.978

> <Bond>
0.185

> <Angle>
0.935

> <Pdih>
1.028

> <Idih>
0.000

> <Tether>
0.000

$$$$
VeraChem MOL file


 20 19  0  0  0  0  0  0  0  0999 V2000     
   21.1818   19.1721   20.3518 N   0  3  0  0  0  0  0  0  0  0  0  0
   22.1403   19.5185   20.2452 H   0  0  0  0  0  0  0  0  0  0  0  0
   21.2441   18.2122   20.7030 H   0  0  0  0  0  0  0  0  0  0  0  0
   20.7770   19.1210   19.4111 H   0  0  0  0  0  0  0  0  0  0  0  0
   20.3610   20.0563   21.2707 C   0  0  0  0  0  0  0  0  0  0  0  0
   19.3497   19.6491   21.3139 H   0  0  0  0  0  0  0  0  0  0  0  0
   20.3052   21.0463   20.8100 H   0  0  0  0  0  0  0  0  0  0  0  0
   20.9468   20.1922   22.6923 C   0  0  0  0  0  0  0  0  0  0  0  0
   21.9648   20.5943   22.6040 H   0  0  0  0  0  0  0  0  0  0  0  0
   20.3743   20.9444   23.2511 H   0  0  0  0  0  0  0  0  0  0  0  0
   20.9983   18.8692   23.5031 C   0  0  0  0  0  0  0  0  0  0  0  0
   21.7747   18.9767   24.2732 H   0  0  0  0  0  0  0  0  0  0  0  0
   21.3305   18.0382   22.8677 H   0  0  0  0  0  0  0  0  0  0  0  0
   19.6797   18.4897   24.2250 C   0  0  0  0  0  0  0  0  0  0  0  0
   19.8662   17.5943   24.8345 H   0  0  0  0  0  0  0  0  0  0  0  0
   19.4021   19.2841   24.9318 H   0  0  0  0  0  0  0  0  0  0  0  0
   18.4901   18.2020   23.2826 C   0  0  0  0  0  0  0  0  0  0  0  0
   18.7699   17.4948   22.4912 H   0  0  0  0  0  0  0  0  0  0  0  0
   17.6554   17.7631   23.8443 H   0  0  0  0  0  0  0  0  0  0  0  0
   18.1173   19.1222   22.8175 H   0  0  0  0  0  0  0  0  0  0  0  0
  1  2  1  0  0  0  0
  1  3  1  0  0  0  0
  1  4  1  0  0  0  0
  1  5  1  0  0  0  0
  5  6  1  0  0  0  0
  5  7  1  0  0  0  0
  5  8  1  0  0  0  0
  8  9  1  0  0  0  0
  8 10  1  0  0  0  0
  8 11  1  0  0  0  0
 11 12  1  0  0  0  0
 11 13  1  0  0  0  0
 11 14  1  0  0  0  0
 14 15  1  0  0  0  0
 14 16  1  0  0  0  0
 14 17  1  0  0  0  0
 17 18  1  0  0  0  0
 17 19  1  0  0  0  0
 17 20  1  0  0  0  0
M  END
> <VConfSearch Rank>
173

> <Conf_Id>
80

> <Delta U+W>
2.920

> <U+W>
-8.857

> <U>
49.434

> <W>
-58.292

> <W(PB)>
-60.170

> <W(SA)>
1.879

> <Valence>
3.798

> <Coulomb>
45.253

> <VdW>
0.384

> <VdW6>
-5.595

> <VdW12>
5.979

> <Bond>
0.198

> <Angle>
1.368

> <Pdih>
2.231

> <Idih>
0.000

> <Tether>
0.000

$$$$
VeraChem MOL file


 20 19  0  0  0  0  0  0  0  0999 V2000     
   19.3591   18.4915   24.5465 N   0  3  0  0  0  0  0  0  0  0  0  0
   18.4813   17.9632   24.5668 H   0  0  0  0  0  0  0  0  0  0  0  0
   19.7842   18.3991   25.4750 H   0  0  0  0  0  0  0  0  0  0  0  0
   19.1156   19.4789   24.4261 H   0  0  0  0  0  0  0  0  0  0  0  0
   20.2871   18.0024   23.4514 C   0  0  0  0  0  0  0  0  0  0  0  0
   20.5339   16.9601   23.6713 H   0  0  0  0  0  0  0  0  0  0  0  0
   21.2086   18.5840   23.5069 H   0  0  0  0  0  0  0  0  0  0  0  0
   19.6807   18.0904   22.0346 C   0  0  0  0  0  0  0  0  0  0  0  0
   20.3550   17.6011   21.3194 H   0  0  0  0  0  0  0  0  0  0  0  0
   18.7536   17.5020   22.0240 H   0  0  0  0  0  0  0  0  0  0  0  0
   19.3659   19.5317   21.5510 C   0  0  0  0  0  0  0  0  0  0  0  0
   18.9166   20.1223   22.3597 H   0  0  0  0  0  0  0  0  0  0  0  0
   18.5920   19.4642   20.7738 H   0  0  0  0  0  0  0  0  0  0  0  0
   20.5686   20.2972   20.9413 C   0  0  0  0  0  0  0  0  0  0  0  0
   20.9549   19.7480   20.0712 H   0  0  0  0  0  0  0  0  0  0  0  0
   20.2039   21.2590   20.5542 H   0  0  0  0  0  0  0  0  0  0  0  0
   21.7236   20.5724   21.9292 C   0  0  0  0  0  0  0  0  0  0  0  0
   22.2704   19.6533   22.1707 H   0  0  0  0  0  0  0  0  0  0  0  0
   22.4457   21.2710   21.4872 H   0  0  0  0  0  0  0  0  0  0  0  0
   21.3536   21.0184   22.8614 H   0  0  0  0  0  0  0  0  0  0  0  0
  1  2  1  0  0  0  0
  1  3  1  0  0  0  0
  1  4  1  0  0  0  0
  1  5  1  0  0  0  0
  5  6  1  0  0  0  0
  5  7  1  0  0  0  0
  5  8  1  0  0  0  0
  8  9  1  0  0  0  0
  8 10  1  0  0  0  0
  8 11  1  0  0  0  0
 11 12  1  0  0  0  0
 11 13  1  0  0  0  0
 11 14  1  0  0  0  0
 14 15  1  0  0  0  0
 14 16  1  0  0  0  0
 14 17  1  0  0  0  0
 17 18  1  0  0  0  0
 17 19  1  0  0  0  0
 17 20  1  0  0  0  0
M  END
> <VConfSearch Rank>
174

> <Conf_Id>
65

> <Delta U+W>
2.949

> <U+W>
-8.829

> <U>
49.435

> <W>
-58.263

> <W(PB)>
-60.125

> <W(SA)>
1.862

> <Valence>
3.797

> <Coulomb>
45.253

> <VdW>
0.384

> <VdW6>
-5.596

> <VdW12>
5.980

> <Bond>
0.198

> <Angle>
1.369

> <Pdih>
2.230

> <Idih>
0.000

> <Tether>
0.000

$$$$
VeraChem MOL file


 20 19  0  0  0  0  0  0  0  0999 V2000     
   21.5341   18.2989   21.4539 N   0  3  0  0  0  0  0  0  0  0  0  0
   21.7927   18.1360   20.4750 H   0  0  0  0  0  0  0  0  0  0  0  0
   21.5558   19.3111   21.6116 H   0  0  0  0  0  0  0  0  0  0  0  0
   22.2733   17.8845   22.0303 H   0  0  0  0  0  0  0  0  0  0  0  0
   20.1726   17.7173   21.7816 C   0  0  0  0  0  0  0  0  0  0  0  0
   20.2304   16.6421   21.5913 H   0  0  0  0  0  0  0  0  0  0  0  0
   19.4349   18.1437   21.0967 H   0  0  0  0  0  0  0  0  0  0  0  0
   19.7276   17.9470   23.2403 C   0  0  0  0  0  0  0  0  0  0  0  0
   18.9873   17.1750   23.4887 H   0  0  0  0  0  0  0  0  0  0  0  0
   20.5745   17.7773   23.9184 H   0  0  0  0  0  0  0  0  0  0  0  0
   19.0827   19.3301   23.5248 C   0  0  0  0  0  0  0  0  0  0  0  0
   18.7668   19.3346   24.5773 H   0  0  0  0  0  0  0  0  0  0  0  0
   18.1582   19.4394   22.9410 H   0  0  0  0  0  0  0  0  0  0  0  0
   20.0044   20.5550   23.2956 C   0  0  0  0  0  0  0  0  0  0  0  0
   19.7698   21.3161   24.0532 H   0  0  0  0  0  0  0  0  0  0  0  0
   21.0547   20.2831   23.4663 H   0  0  0  0  0  0  0  0  0  0  0  0
   19.8195   21.2025   21.9026 C   0  0  0  0  0  0  0  0  0  0  0  0
   19.9662   20.4883   21.0853 H   0  0  0  0  0  0  0  0  0  0  0  0
   18.8074   21.6154   21.8003 H   0  0  0  0  0  0  0  0  0  0  0  0
   20.5287   22.0287   21.7627 H   0  0  0  0  0  0  0  0  0  0  0  0
  1  2  1  0  0  0  0
  1  3  1  0  0  0  0
  1  4  1  0  0  0  0
  1  5  1  0  0  0  0
  5  6  1  0  0  0  0
  5  7  1  0  0  0  0
  5  8  1  0  0  0  0
  8  9  1  0  0  0  0
  8 10  1  0  0  0  0
  8 11  1  0  0  0  0
 11 12  1  0  0  0  0
 11 13  1  0  0  0  0
 11 14  1  0  0  0  0
 14 15  1  0  0  0  0
 14 16  1  0  0  0  0
 14 17  1  0  0  0  0
 17 18  1  0  0  0  0
 17 19  1  0  0  0  0
 17 20  1  0  0  0  0
M  END
> <VConfSearch Rank>
175

> <Conf_Id>
77

> <Delta U+W>
5.366

> <U+W>
-6.412

> <U>
51.542

> <W>
-57.954

> <W(PB)>
-59.811

> <W(SA)>
1.857

> <Valence>
5.347

> <Coulomb>
45.870

> <VdW>
0.325

> <VdW6>
-6.161

> <VdW12>
6.486

> <Bond>
0.201

> <Angle>
1.484

> <Pdih>
3.662

> <Idih>
0.000

> <Tether>
0.000

$$$$
VeraChem MOL file


 20 19  0  0  0  0  0  0  0  0999 V2000     
   21.9138   19.6599   23.2155 N   0  3  0  0  0  0  0  0  0  0  0  0
   22.3639   20.4252   22.7035 H   0  0  0  0  0  0  0  0  0  0  0  0
   21.0103   20.0074   23.5511 H   0  0  0  0  0  0  0  0  0  0  0  0
   22.4942   19.4704   24.0394 H   0  0  0  0  0  0  0  0  0  0  0  0
   21.7449   18.4266   22.3494 C   0  0  0  0  0  0  0  0  0  0  0  0
   21.3226   17.6242   22.9602 H   0  0  0  0  0  0  0  0  0  0  0  0
   22.7451   18.1202   22.0312 H   0  0  0  0  0  0  0  0  0  0  0  0
   20.8670   18.6526   21.1017 C   0  0  0  0  0  0  0  0  0  0  0  0
   21.1179   19.6170   20.6403 H   0  0  0  0  0  0  0  0  0  0  0  0
   21.1372   17.8884   20.3609 H   0  0  0  0  0  0  0  0  0  0  0  0
   19.3366   18.5570   21.3437 C   0  0  0  0  0  0  0  0  0  0  0  0
   19.0730   17.5440   21.6782 H   0  0  0  0  0  0  0  0  0  0  0  0
   18.8421   18.6820   20.3704 H   0  0  0  0  0  0  0  0  0  0  0  0
   18.7491   19.6089   22.3188 C   0  0  0  0  0  0  0  0  0  0  0  0
   19.3439   20.5318   22.2926 H   0  0  0  0  0  0  0  0  0  0  0  0
   17.7478   19.8930   21.9652 H   0  0  0  0  0  0  0  0  0  0  0  0
   18.6071   19.0827   23.7668 C   0  0  0  0  0  0  0  0  0  0  0  0
   18.2408   19.8752   24.4323 H   0  0  0  0  0  0  0  0  0  0  0  0
   17.8846   18.2570   23.8082 H   0  0  0  0  0  0  0  0  0  0  0  0
   19.5538   18.7104   24.1726 H   0  0  0  0  0  0  0  0  0  0  0  0
  1  2  1  0  0  0  0
  1  3  1  0  0  0  0
  1  4  1  0  0  0  0
  1  5  1  0  0  0  0
  5  6  1  0  0  0  0
  5  7  1  0  0  0  0
  5  8  1  0  0  0  0
  8  9  1  0  0  0  0
  8 10  1  0  0  0  0
  8 11  1  0  0  0  0
 11 12  1  0  0  0  0
 11 13  1  0  0  0  0
 11 14  1  0  0  0  0
 14 15  1  0  0  0  0
 14 16  1  0  0  0  0
 14 17  1  0  0  0  0
 17 18  1  0  0  0  0
 17 19  1  0  0  0  0
 17 20  1  0  0  0  0
M  END
> <VConfSearch Rank>
176

> <Conf_Id>
67

> <Delta U+W>
5.353

> <U+W>
-6.425

> <U>
51.541

> <W>
-57.966

> <W(PB)>
-59.821

> <W(SA)>
1.855

> <Valence>
5.347

> <Coulomb>
45.870

> <VdW>
0.325

> <VdW6>
-6.161

> <VdW12>
6.486

> <Bond>
0.201

> <Angle>
1.485

> <Pdih>
3.662

> <Idih>
0.000

> <Tether>
0.000

$$$$
VeraChem MOL file


 20 19  0  0  0  0  0  0  0  0999 V2000     
   20.6486   19.2611   25.6388 N   0  3  0  0  0  0  0  0  0  0  0  0
   20.0028   20.0277   25.8523 H   0  0  0  0  0  0  0  0  0  0  0  0
   20.6158   18.6147   26.4342 H   0  0  0  0  0  0  0  0  0  0  0  0
   21.5927   19.6593   25.6184 H   0  0  0  0  0  0  0  0  0  0  0  0
   20.2969   18.5699   24.3368 C   0  0  0  0  0  0  0  0  0  0  0  0
   19.2948   18.1450   24.4402 H   0  0  0  0  0  0  0  0  0  0  0  0
   21.0040   17.7491   24.1887 H   0  0  0  0  0  0  0  0  0  0  0  0
   20.3365   19.5132   23.1212 C   0  0  0  0  0  0  0  0  0  0  0  0
   19.6368   20.3444   23.2813 H   0  0  0  0  0  0  0  0  0  0  0  0
   21.3401   19.9499   23.0306 H   0  0  0  0  0  0  0  0  0  0  0  0
   19.9725   18.7706   21.8163 C   0  0  0  0  0  0  0  0  0  0  0  0
   18.9701   18.3305   21.9124 H   0  0  0  0  0  0  0  0  0  0  0  0
   20.6714   17.9366   21.6620 H   0  0  0  0  0  0  0  0  0  0  0  0
   20.0090   19.7082   20.5887 C   0  0  0  0  0  0  0  0  0  0  0  0
   19.3096   20.5429   20.7381 H   0  0  0  0  0  0  0  0  0  0  0  0
   21.0108   20.1489   20.4876 H   0  0  0  0  0  0  0  0  0  0  0  0
   19.6446   18.9619   19.2874 C   0  0  0  0  0  0  0  0  0  0  0  0
   18.6332   18.5387   19.3447 H   0  0  0  0  0  0  0  0  0  0  0  0
   19.6758   19.6438   18.4277 H   0  0  0  0  0  0  0  0  0  0  0  0
   20.3477   18.1418   19.0922 H   0  0  0  0  0  0  0  0  0  0  0  0
  1  2  1  0  0  0  0
  1  3  1  0  0  0  0
  1  4  1  0  0  0  0
  1  5  1  0  0  0  0
  5  6  1  0  0  0  0
  5  7  1  0  0  0  0
  5  8  1  0  0  0  0
  8  9  1  0  0  0  0
  8 10  1  0  0  0  0
  8 11  1  0  0  0  0
 11 12  1  0  0  0  0
 11 13  1  0  0  0  0
 11 14  1  0  0  0  0
 14 15  1  0  0  0  0
 14 16  1  0  0  0  0
 14 17  1  0  0  0  0
 17 18  1  0  0  0  0
 17 19  1  0  0  0  0
 17 20  1  0  0  0  0
M  END
> <VConfSearch Rank>
177

> <Conf_Id>
72

> <Delta U+W>
0.000

> <U+W>
-11.778

> <U>
45.772

> <W>
-57.550

> <W(PB)>
-59.511

> <W(SA)>
1.961

> <Valence>
1.299

> <Coulomb>
44.177

> <VdW>
0.297

> <VdW6>
-3.490

> <VdW12>
3.786

> <Bond>
0.096

> <Angle>
0.381

> <Pdih>
0.822

> <Idih>
0.000

> <Tether>
0.000

$$$$
VeraChem MOL file


 20 19  0  0  0  0  0  0  0  0999 V2000     
   21.4374   21.4196   20.9926 N   0  3  0  0  0  0  0  0  0  0  0  0
   20.6548   21.4806   20.3337 H   0  0  0  0  0  0  0  0  0  0  0  0
   21.2974   22.1524   21.6953 H   0  0  0  0  0  0  0  0  0  0  0  0
   22.2851   21.6663   20.4709 H   0  0  0  0  0  0  0  0  0  0  0  0
   21.5433   20.0447   21.6211 C   0  0  0  0  0  0  0  0  0  0  0  0
   22.4123   20.0432   22.2847 H   0  0  0  0  0  0  0  0  0  0  0  0
   21.7209   19.3207   20.8213 H   0  0  0  0  0  0  0  0  0  0  0  0
   20.2862   19.6430   22.4133 C   0  0  0  0  0  0  0  0  0  0  0  0
   20.1025   20.3813   23.2051 H   0  0  0  0  0  0  0  0  0  0  0  0
   19.4183   19.6652   21.7422 H   0  0  0  0  0  0  0  0  0  0  0  0
   20.4391   18.2361   23.0382 C   0  0  0  0  0  0  0  0  0  0  0  0
   21.3549   18.2120   23.6452 H   0  0  0  0  0  0  0  0  0  0  0  0
   20.5768   17.4907   22.2427 H   0  0  0  0  0  0  0  0  0  0  0  0
   19.2446   17.8241   23.9326 C   0  0  0  0  0  0  0  0  0  0  0  0
   19.4804   16.8658   24.4164 H   0  0  0  0  0  0  0  0  0  0  0  0
   19.1182   18.5545   24.7441 H   0  0  0  0  0  0  0  0  0  0  0  0
   17.9167   17.6760   23.1552 C   0  0  0  0  0  0  0  0  0  0  0  0
   18.0241   16.9716   22.3201 H   0  0  0  0  0  0  0  0  0  0  0  0
   17.1259   17.2957   23.8147 H   0  0  0  0  0  0  0  0  0  0  0  0
   17.5752   18.6376   22.7526 H   0  0  0  0  0  0  0  0  0  0  0  0
  1  2  1  0  0  0  0
  1  3  1  0  0  0  0
  1  4  1  0  0  0  0
  1  5  1  0  0  0  0
  5  6  1  0  0  0  0
  5  7  1  0  0  0  0
  5  8  1  0  0  0  0
  8  9  1  0  0  0  0
  8 10  1  0  0  0  0
  8 11  1  0  0  0  0
 11 12  1  0  0  0  0
 11 13  1  0  0  0  0
 11 14  1  0  0  0  0
 14 15  1  0  0  0  0
 14 16  1  0  0  0  0
 14 17  1  0  0  0  0
 17 18  1  0  0  0  0
 17 19  1  0  0  0  0
 17 20  1  0  0  0  0
M  END
> <VConfSearch Rank>
178

> <Conf_Id>
42

> <Delta U+W>
0.508

> <U+W>
-11.270

> <U>
46.486

> <W>
-57.756

> <W(PB)>
-59.705

> <W(SA)>
1.949

> <Valence>
1.806

> <Coulomb>
44.248

> <VdW>
0.433

> <VdW6>
-4.089

> <VdW12>
4.522

> <Bond>
0.131

> <Angle>
0.628

> <Pdih>
1.047

> <Idih>
0.000

> <Tether>
0.000

$$$$
VeraChem MOL file


 20 19  0  0  0  0  0  0  0  0999 V2000     
   22.0193   18.8580   20.1328 N   0  3  0  0  0  0  0  0  0  0  0  0
   21.7630   17.9111   19.8361 H   0  0  0  0  0  0  0  0  0  0  0  0
   21.4435   19.5099   19.5907 H   0  0  0  0  0  0  0  0  0  0  0  0
   22.9912   19.0076   19.8421 H   0  0  0  0  0  0  0  0  0  0  0  0
   21.8420   19.0515   21.6253 C   0  0  0  0  0  0  0  0  0  0  0  0
   22.1605   20.0674   21.8743 H   0  0  0  0  0  0  0  0  0  0  0  0
   22.5047   18.3488   22.1377 H   0  0  0  0  0  0  0  0  0  0  0  0
   20.3927   18.8335   22.0960 C   0  0  0  0  0  0  0  0  0  0  0  0
   19.7348   19.5312   21.5627 H   0  0  0  0  0  0  0  0  0  0  0  0
   20.0717   17.8177   21.8299 H   0  0  0  0  0  0  0  0  0  0  0  0
   20.2590   19.0387   23.6234 C   0  0  0  0  0  0  0  0  0  0  0  0
   20.5362   20.0696   23.8841 H   0  0  0  0  0  0  0  0  0  0  0  0
   20.9795   18.3864   24.1364 H   0  0  0  0  0  0  0  0  0  0  0  0
   18.8423   18.7306   24.1665 C   0  0  0  0  0  0  0  0  0  0  0  0
   18.5705   17.6926   23.9288 H   0  0  0  0  0  0  0  0  0  0  0  0
   18.8626   18.7988   25.2633 H   0  0  0  0  0  0  0  0  0  0  0  0
   17.7555   19.6889   23.6280 C   0  0  0  0  0  0  0  0  0  0  0  0
   17.6126   19.5705   22.5469 H   0  0  0  0  0  0  0  0  0  0  0  0
   16.7911   19.4865   24.1117 H   0  0  0  0  0  0  0  0  0  0  0  0
   18.0175   20.7360   23.8282 H   0  0  0  0  0  0  0  0  0  0  0  0
  1  2  1  0  0  0  0
  1  3  1  0  0  0  0
  1  4  1  0  0  0  0
  1  5  1  0  0  0  0
  5  6  1  0  0  0  0
  5  7  1  0  0  0  0
  5  8  1  0  0  0  0
  8  9  1  0  0  0  0
  8 10  1  0  0  0  0
  8 11  1  0  0  0  0
 11 12  1  0  0  0  0
 11 13  1  0  0  0  0
 11 14  1  0  0  0  0
 14 15  1  0  0  0  0
 14 16  1  0  0  0  0
 14 17  1  0  0  0  0
 17 18  1  0  0  0  0
 17 19  1  0  0  0  0
 17 20  1  0  0  0  0
M  END
> <VConfSearch Rank>
179

> <Conf_Id>
41

> <Delta U+W>
0.515

> <U+W>
-11.263

> <U>
46.486

> <W>
-57.749

> <W(PB)>
-59.685

> <W(SA)>
1.936

> <Valence>
1.806

> <Coulomb>
44.248

> <VdW>
0.433

> <VdW6>
-4.089

> <VdW12>
4.522

> <Bond>
0.131

> <Angle>
0.628

> <Pdih>
1.047

> <Idih>
0.000

> <Tether>
0.000

$$$$
VeraChem MOL file


 20 19  0  0  0  0  0  0  0  0999 V2000     
   19.1209   21.6840   22.2109 N   0  3  0  0  0  0  0  0  0  0  0  0
   18.6955   22.4350   21.6573 H   0  0  0  0  0  0  0  0  0  0  0  0
   18.3553   21.1803   22.6681 H   0  0  0  0  0  0  0  0  0  0  0  0
   19.6713   22.1335   22.9492 H   0  0  0  0  0  0  0  0  0  0  0  0
   19.9698   20.7649   21.3536 C   0  0  0  0  0  0  0  0  0  0  0  0
   20.7331   21.3784   20.8672 H   0  0  0  0  0  0  0  0  0  0  0  0
   19.3304   20.3385   20.5760 H   0  0  0  0  0  0  0  0  0  0  0  0
   20.6543   19.6308   22.1419 C   0  0  0  0  0  0  0  0  0  0  0  0
   21.3300   19.1030   21.4575 H   0  0  0  0  0  0  0  0  0  0  0  0
   21.2819   20.0616   22.9332 H   0  0  0  0  0  0  0  0  0  0  0  0
   19.6409   18.6302   22.7525 C   0  0  0  0  0  0  0  0  0  0  0  0
   19.0319   18.1863   21.9528 H   0  0  0  0  0  0  0  0  0  0  0  0
   18.9444   19.1695   23.4080 H   0  0  0  0  0  0  0  0  0  0  0  0
   20.3083   17.5041   23.5793 C   0  0  0  0  0  0  0  0  0  0  0  0
   20.9079   17.9428   24.3892 H   0  0  0  0  0  0  0  0  0  0  0  0
   19.5214   16.9116   24.0667 H   0  0  0  0  0  0  0  0  0  0  0  0
   21.1903   16.5576   22.7331 C   0  0  0  0  0  0  0  0  0  0  0  0
   22.0651   17.0780   22.3243 H   0  0  0  0  0  0  0  0  0  0  0  0
   21.5598   15.7261   23.3472 H   0  0  0  0  0  0  0  0  0  0  0  0
   20.6220   16.1298   21.8971 H   0  0  0  0  0  0  0  0  0  0  0  0
  1  2  1  0  0  0  0
  1  3  1  0  0  0  0
  1  4  1  0  0  0  0
  1  5  1  0  0  0  0
  5  6  1  0  0  0  0
  5  7  1  0  0  0  0
  5  8  1  0  0  0  0
  8  9  1  0  0  0  0
  8 10  1  0  0  0  0
  8 11  1  0  0  0  0
 11 12  1  0  0  0  0
 11 13  1  0  0  0  0
 11 14  1  0  0  0  0
 14 15  1  0  0  0  0
 14 16  1  0  0  0  0
 14 17  1  0  0  0  0
 17 18  1  0  0  0  0
 17 19  1  0  0  0  0
 17 20  1  0  0  0  0
M  END
> <VConfSearch Rank>
180

> <Conf_Id>
33

> <Delta U+W>
0.703

> <U+W>
-11.075

> <U>
47.080

> <W>
-58.154

> <W(PB)>
-60.053

> <W(SA)>
1.899

> <Valence>
1.943

> <Coulomb>
44.572

> <VdW>
0.565

> <VdW6>
-4.575

> <VdW12>
5.139

> <Bond>
0.158

> <Angle>
0.700

> <Pdih>
1.085

> <Idih>
0.000

> <Tether>
0.000

$$$$
VeraChem MOL file


 20 19  0  0  0  0  0  0  0  0999 V2000     
   22.4281   19.3938   20.9206 N   0  3  0  0  0  0  0  0  0  0  0  0
   23.3288   19.0476   20.5736 H   0  0  0  0  0  0  0  0  0  0  0  0
   22.0355   19.9904   20.1857 H   0  0  0  0  0  0  0  0  0  0  0  0
   22.6298   19.9961   21.7240 H   0  0  0  0  0  0  0  0  0  0  0  0
   21.4919   18.2581   21.2864 C   0  0  0  0  0  0  0  0  0  0  0  0
   21.9784   17.6502   22.0541 H   0  0  0  0  0  0  0  0  0  0  0  0
   21.3604   17.6383   20.3952 H   0  0  0  0  0  0  0  0  0  0  0  0
   20.1119   18.7238   21.7909 C   0  0  0  0  0  0  0  0  0  0  0  0
   19.6334   19.3483   21.0250 H   0  0  0  0  0  0  0  0  0  0  0  0
   19.4790   17.8361   21.9129 H   0  0  0  0  0  0  0  0  0  0  0  0
   20.1944   19.4964   23.1316 C   0  0  0  0  0  0  0  0  0  0  0  0
   20.8579   20.3632   23.0138 H   0  0  0  0  0  0  0  0  0  0  0  0
   20.6535   18.8576   23.8988 H   0  0  0  0  0  0  0  0  0  0  0  0
   18.8215   20.0041   23.6360 C   0  0  0  0  0  0  0  0  0  0  0  0
   18.9829   20.6333   24.5226 H   0  0  0  0  0  0  0  0  0  0  0  0
   18.3640   20.6547   22.8775 H   0  0  0  0  0  0  0  0  0  0  0  0
   17.8413   18.8673   24.0058 C   0  0  0  0  0  0  0  0  0  0  0  0
   18.2874   18.1840   24.7401 H   0  0  0  0  0  0  0  0  0  0  0  0
   16.9240   19.2794   24.4459 H   0  0  0  0  0  0  0  0  0  0  0  0
   17.5492   18.2829   23.1247 H   0  0  0  0  0  0  0  0  0  0  0  0
  1  2  1  0  0  0  0
  1  3  1  0  0  0  0
  1  4  1  0  0  0  0
  1  5  1  0  0  0  0
  5  6  1  0  0  0  0
  5  7  1  0  0  0  0
  5  8  1  0  0  0  0
  8  9  1  0  0  0  0
  8 10  1  0  0  0  0
  8 11  1  0  0  0  0
 11 12  1  0  0  0  0
 11 13  1  0  0  0  0
 11 14  1  0  0  0  0
 14 15  1  0  0  0  0
 14 16  1  0  0  0  0
 14 17  1  0  0  0  0
 17 18  1  0  0  0  0
 17 19  1  0  0  0  0
 17 20  1  0  0  0  0
M  END
> <VConfSearch Rank>
181

> <Conf_Id>
24

> <Delta U+W>
0.847

> <U+W>
-10.931

> <U>
47.080

> <W>
-58.011

> <W(PB)>
-59.914

> <W(SA)>
1.903

> <Valence>
1.943

> <Coulomb>
44.572

> <VdW>
0.565

> <VdW6>
-4.575

> <VdW12>
5.140

> <Bond>
0.158

> <Angle>
0.700

> <Pdih>
1.085

> <Idih>
0.000

> <Tether>
0.000

$$$$
VeraChem MOL file


 20 19  0  0  0  0  0  0  0  0999 V2000     
   18.3480   18.8755   24.5499 N   0  3  0  0  0  0  0  0  0  0  0  0
   18.5594   18.8382   25.5526 H   0  0  0  0  0  0  0  0  0  0  0  0
   17.9277   19.7923   24.3686 H   0  0  0  0  0  0  0  0  0  0  0  0
   17.6242   18.1719   24.3728 H   0  0  0  0  0  0  0  0  0  0  0  0
   19.5838   18.6416   23.7047 C   0  0  0  0  0  0  0  0  0  0  0  0
   19.9943   17.6635   23.9695 H   0  0  0  0  0  0  0  0  0  0  0  0
   20.3198   19.4061   23.9672 H   0  0  0  0  0  0  0  0  0  0  0  0
   19.3005   18.6918   22.1915 C   0  0  0  0  0  0  0  0  0  0  0  0
   18.5303   17.9489   21.9456 H   0  0  0  0  0  0  0  0  0  0  0  0
   18.8798   19.6701   21.9260 H   0  0  0  0  0  0  0  0  0  0  0  0
   20.5603   18.4070   21.3360 C   0  0  0  0  0  0  0  0  0  0  0  0
   20.2853   18.4465   20.2729 H   0  0  0  0  0  0  0  0  0  0  0  0
   20.8931   17.3767   21.5236 H   0  0  0  0  0  0  0  0  0  0  0  0
   21.7495   19.3690   21.5881 C   0  0  0  0  0  0  0  0  0  0  0  0
   22.1084   19.2663   22.6213 H   0  0  0  0  0  0  0  0  0  0  0  0
   22.5883   19.0645   20.9465 H   0  0  0  0  0  0  0  0  0  0  0  0
   21.4140   20.8498   21.2991 C   0  0  0  0  0  0  0  0  0  0  0  0
   22.3107   21.4744   21.4023 H   0  0  0  0  0  0  0  0  0  0  0  0
   21.0328   20.9763   20.2775 H   0  0  0  0  0  0  0  0  0  0  0  0
   20.6612   21.2360   21.9976 H   0  0  0  0  0  0  0  0  0  0  0  0
  1  2  1  0  0  0  0
  1  3  1  0  0  0  0
  1  4  1  0  0  0  0
  1  5  1  0  0  0  0
  5  6  1  0  0  0  0
  5  7  1  0  0  0  0
  5  8  1  0  0  0  0
  8  9  1  0  0  0  0
  8 10  1  0  0  0  0
  8 11  1  0  0  0  0
 11 12  1  0  0  0  0
 11 13  1  0  0  0  0
 11 14  1  0  0  0  0
 14 15  1  0  0  0  0
 14 16  1  0  0  0  0
 14 17  1  0  0  0  0
 17 18  1  0  0  0  0
 17 19  1  0  0  0  0
 17 20  1  0  0  0  0
M  END
> <VConfSearch Rank>
182

> <Conf_Id>
64

> <Delta U+W>
0.707

> <U+W>
-11.070

> <U>
47.077

> <W>
-58.148

> <W(PB)>
-60.054

> <W(SA)>
1.906

> <Valence>
2.039

> <Coulomb>
44.655

> <VdW>
0.383

> <VdW6>
-4.912

> <VdW12>
5.295

> <Bond>
0.159

> <Angle>
0.856

> <Pdih>
1.024

> <Idih>
0.000

> <Tether>
0.000

$$$$
VeraChem MOL file


 20 19  0  0  0  0  0  0  0  0999 V2000     
   21.9035   17.2791   21.2830 N   0  3  0  0  0  0  0  0  0  0  0  0
   21.4364   16.4799   20.8433 H   0  0  0  0  0  0  0  0  0  0  0  0
   22.1192   17.9491   20.5381 H   0  0  0  0  0  0  0  0  0  0  0  0
   22.8001   16.9373   21.6444 H   0  0  0  0  0  0  0  0  0  0  0  0
   21.0557   17.8997   22.3750 C   0  0  0  0  0  0  0  0  0  0  0  0
   21.6259   18.7210   22.8169 H   0  0  0  0  0  0  0  0  0  0  0  0
   20.8899   17.1422   23.1458 H   0  0  0  0  0  0  0  0  0  0  0  0
   19.7005   18.4245   21.8646 C   0  0  0  0  0  0  0  0  0  0  0  0
   19.8657   19.1783   21.0843 H   0  0  0  0  0  0  0  0  0  0  0  0
   19.1539   17.6011   21.3859 H   0  0  0  0  0  0  0  0  0  0  0  0
   18.8223   19.0160   22.9954 C   0  0  0  0  0  0  0  0  0  0  0  0
   18.5633   18.2150   23.7017 H   0  0  0  0  0  0  0  0  0  0  0  0
   17.8710   19.3586   22.5654 H   0  0  0  0  0  0  0  0  0  0  0  0
   19.4726   20.1831   23.7817 C   0  0  0  0  0  0  0  0  0  0  0  0
   18.7742   20.5097   24.5650 H   0  0  0  0  0  0  0  0  0  0  0  0
   20.3713   19.8326   24.3072 H   0  0  0  0  0  0  0  0  0  0  0  0
   19.8294   21.3979   22.8951 C   0  0  0  0  0  0  0  0  0  0  0  0
   18.9509   21.7550   22.3423 H   0  0  0  0  0  0  0  0  0  0  0  0
   20.1986   22.2281   23.5110 H   0  0  0  0  0  0  0  0  0  0  0  0
   20.6150   21.1506   22.1703 H   0  0  0  0  0  0  0  0  0  0  0  0
  1  2  1  0  0  0  0
  1  3  1  0  0  0  0
  1  4  1  0  0  0  0
  1  5  1  0  0  0  0
  5  6  1  0  0  0  0
  5  7  1  0  0  0  0
  5  8  1  0  0  0  0
  8  9  1  0  0  0  0
  8 10  1  0  0  0  0
  8 11  1  0  0  0  0
 11 12  1  0  0  0  0
 11 13  1  0  0  0  0
 11 14  1  0  0  0  0
 14 15  1  0  0  0  0
 14 16  1  0  0  0  0
 14 17  1  0  0  0  0
 17 18  1  0  0  0  0
 17 19  1  0  0  0  0
 17 20  1  0  0  0  0
M  END
> <VConfSearch Rank>
183

> <Conf_Id>
22

> <Delta U+W>
0.731

> <U+W>
-11.047

> <U>
47.078

> <W>
-58.125

> <W(PB)>
-60.031

> <W(SA)>
1.906

> <Valence>
2.039

> <Coulomb>
44.655

> <VdW>
0.383

> <VdW6>
-4.913

> <VdW12>
5.296

> <Bond>
0.159

> <Angle>
0.856

> <Pdih>
1.024

> <Idih>
0.000

> <Tether>
0.000

$$$$
VeraChem MOL file


 20 19  0  0  0  0  0  0  0  0999 V2000     
   19.7583   21.3554   24.1596 N   0  3  0  0  0  0  0  0  0  0  0  0
   18.9951   21.0195   24.7554 H   0  0  0  0  0  0  0  0  0  0  0  0
   20.5574   21.5456   24.7724 H   0  0  0  0  0  0  0  0  0  0  0  0
   19.4592   22.2569   23.7731 H   0  0  0  0  0  0  0  0  0  0  0  0
   20.1047   20.3618   23.0690 C   0  0  0  0  0  0  0  0  0  0  0  0
   20.9022   20.7939   22.4585 H   0  0  0  0  0  0  0  0  0  0  0  0
   19.2184   20.2337   22.4434 H   0  0  0  0  0  0  0  0  0  0  0  0
   20.5527   18.9952   23.6169 C   0  0  0  0  0  0  0  0  0  0  0  0
   21.3670   19.1530   24.3365 H   0  0  0  0  0  0  0  0  0  0  0  0
   19.7272   18.5381   24.1785 H   0  0  0  0  0  0  0  0  0  0  0  0
   21.0465   18.0119   22.5255 C   0  0  0  0  0  0  0  0  0  0  0  0
   21.4228   17.1145   23.0360 H   0  0  0  0  0  0  0  0  0  0  0  0
   21.9108   18.4363   21.9962 H   0  0  0  0  0  0  0  0  0  0  0  0
   19.9628   17.5659   21.5096 C   0  0  0  0  0  0  0  0  0  0  0  0
   20.2262   16.5640   21.1423 H   0  0  0  0  0  0  0  0  0  0  0  0
   18.9913   17.4570   22.0116 H   0  0  0  0  0  0  0  0  0  0  0  0
   19.8313   18.4991   20.2830 C   0  0  0  0  0  0  0  0  0  0  0  0
   19.4810   19.4996   20.5572 H   0  0  0  0  0  0  0  0  0  0  0  0
   20.7928   18.6051   19.7640 H   0  0  0  0  0  0  0  0  0  0  0  0
   19.1110   18.0861   19.5649 H   0  0  0  0  0  0  0  0  0  0  0  0
  1  2  1  0  0  0  0
  1  3  1  0  0  0  0
  1  4  1  0  0  0  0
  1  5  1  0  0  0  0
  5  6  1  0  0  0  0
  5  7  1  0  0  0  0
  5  8  1  0  0  0  0
  8  9  1  0  0  0  0
  8 10  1  0  0  0  0
  8 11  1  0  0  0  0
 11 12  1  0  0  0  0
 11 13  1  0  0  0  0
 11 14  1  0  0  0  0
 14 15  1  0  0  0  0
 14 16  1  0  0  0  0
 14 17  1  0  0  0  0
 17 18  1  0  0  0  0
 17 19  1  0  0  0  0
 17 20  1  0  0  0  0
M  END
> <VConfSearch Rank>
184

> <Conf_Id>
61

> <Delta U+W>
2.669

> <U+W>
-9.108

> <U>
48.916

> <W>
-58.025

> <W(PB)>
-59.935

> <W(SA)>
1.911

> <Valence>
3.785

> <Coulomb>
44.716

> <VdW>
0.415

> <VdW6>
-4.836

> <VdW12>
5.251

> <Bond>
0.175

> <Angle>
1.195

> <Pdih>
2.415

> <Idih>
0.000

> <Tether>
0.000

$$$$
VeraChem MOL file


 20 19  0  0  0  0  0  0  0  0999 V2000     
   22.2997   19.7205   22.7862 N   0  3  0  0  0  0  0  0  0  0  0  0
   23.0978   20.2267   22.3881 H   0  0  0  0  0  0  0  0  0  0  0  0
   22.6229   19.3000   23.6631 H   0  0  0  0  0  0  0  0  0  0  0  0
   22.0809   18.9530   22.1458 H   0  0  0  0  0  0  0  0  0  0  0  0
   21.1084   20.6333   23.0054 C   0  0  0  0  0  0  0  0  0  0  0  0
   20.8441   21.0971   22.0513 H   0  0  0  0  0  0  0  0  0  0  0  0
   21.4348   21.4240   23.6864 H   0  0  0  0  0  0  0  0  0  0  0  0
   19.8722   19.9327   23.6076 C   0  0  0  0  0  0  0  0  0  0  0  0
   20.1806   19.2476   24.4085 H   0  0  0  0  0  0  0  0  0  0  0  0
   19.2554   20.7019   24.0910 H   0  0  0  0  0  0  0  0  0  0  0  0
   18.9840   19.1921   22.5750 C   0  0  0  0  0  0  0  0  0  0  0  0
   18.6366   19.9041   21.8135 H   0  0  0  0  0  0  0  0  0  0  0  0
   18.0829   18.8355   23.0930 H   0  0  0  0  0  0  0  0  0  0  0  0
   19.6702   17.9910   21.8831 C   0  0  0  0  0  0  0  0  0  0  0  0
   20.4844   18.3437   21.2376 H   0  0  0  0  0  0  0  0  0  0  0  0
   20.1147   17.3282   22.6388 H   0  0  0  0  0  0  0  0  0  0  0  0
   18.6738   17.1860   21.0216 C   0  0  0  0  0  0  0  0  0  0  0  0
   19.1781   16.3438   20.5303 H   0  0  0  0  0  0  0  0  0  0  0  0
   17.8596   16.7785   21.6350 H   0  0  0  0  0  0  0  0  0  0  0  0
   18.2301   17.8155   20.2392 H   0  0  0  0  0  0  0  0  0  0  0  0
  1  2  1  0  0  0  0
  1  3  1  0  0  0  0
  1  4  1  0  0  0  0
  1  5  1  0  0  0  0
  5  6  1  0  0  0  0
  5  7  1  0  0  0  0
  5  8  1  0  0  0  0
  8  9  1  0  0  0  0
  8 10  1  0  0  0  0
  8 11  1  0  0  0  0
 11 12  1  0  0  0  0
 11 13  1  0  0  0  0
 11 14  1  0  0  0  0
 14 15  1  0  0  0  0
 14 16  1  0  0  0  0
 14 17  1  0  0  0  0
 17 18  1  0  0  0  0
 17 19  1  0  0  0  0
 17 20  1  0  0  0  0
M  END
> <VConfSearch Rank>
185

> <Conf_Id>
69

> <Delta U+W>
2.811

> <U+W>
-8.967

> <U>
49.216

> <W>
-58.183

> <W(PB)>
-60.064

> <W(SA)>
1.881

> <Valence>
2.929

> <Coulomb>
46.006

> <VdW>
0.281

> <VdW6>
-4.909

> <VdW12>
5.190

> <Bond>
0.156

> <Angle>
0.974

> <Pdih>
1.799

> <Idih>
0.000

> <Tether>
0.000

$$$$
VeraChem MOL file


 20 19  0  0  0  0  0  0  0  0999 V2000     
   17.9930   20.0036   22.8873 N   0  3  0  0  0  0  0  0  0  0  0  0
   18.5413   19.5166   23.6010 H   0  0  0  0  0  0  0  0  0  0  0  0
   18.0841   21.0081   23.0690 H   0  0  0  0  0  0  0  0  0  0  0  0
   17.0092   19.7615   23.0461 H   0  0  0  0  0  0  0  0  0  0  0  0
   18.4408   19.6429   21.4838 C   0  0  0  0  0  0  0  0  0  0  0  0
   17.7974   20.1947   20.7931 H   0  0  0  0  0  0  0  0  0  0  0  0
   18.2679   18.5749   21.3263 H   0  0  0  0  0  0  0  0  0  0  0  0
   19.9140   19.9859   21.1780 C   0  0  0  0  0  0  0  0  0  0  0  0
   20.0164   20.0752   20.0884 H   0  0  0  0  0  0  0  0  0  0  0  0
   20.1627   20.9748   21.5854 H   0  0  0  0  0  0  0  0  0  0  0  0
   20.9370   18.9276   21.6654 C   0  0  0  0  0  0  0  0  0  0  0  0
   21.9302   19.2163   21.2943 H   0  0  0  0  0  0  0  0  0  0  0  0
   20.7085   17.9574   21.2029 H   0  0  0  0  0  0  0  0  0  0  0  0
   21.0067   18.7629   23.2017 C   0  0  0  0  0  0  0  0  0  0  0  0
   21.1278   19.7459   23.6781 H   0  0  0  0  0  0  0  0  0  0  0  0
   20.0704   18.3308   23.5765 H   0  0  0  0  0  0  0  0  0  0  0  0
   22.1744   17.8450   23.6225 C   0  0  0  0  0  0  0  0  0  0  0  0
   23.1390   18.2597   23.3019 H   0  0  0  0  0  0  0  0  0  0  0  0
   22.2041   17.7308   24.7139 H   0  0  0  0  0  0  0  0  0  0  0  0
   22.0690   16.8450   23.1820 H   0  0  0  0  0  0  0  0  0  0  0  0
  1  2  1  0  0  0  0
  1  3  1  0  0  0  0
  1  4  1  0  0  0  0
  1  5  1  0  0  0  0
  5  6  1  0  0  0  0
  5  7  1  0  0  0  0
  5  8  1  0  0  0  0
  8  9  1  0  0  0  0
  8 10  1  0  0  0  0
  8 11  1  0  0  0  0
 11 12  1  0  0  0  0
 11 13  1  0  0  0  0
 11 14  1  0  0  0  0
 14 15  1  0  0  0  0
 14 16  1  0  0  0  0
 14 17  1  0  0  0  0
 17 18  1  0  0  0  0
 17 19  1  0  0  0  0
 17 20  1  0  0  0  0
M  END
> <VConfSearch Rank>
186

> <Conf_Id>
26

> <Delta U+W>
2.809

> <U+W>
-8.969

> <U>
49.216

> <W>
-58.185

> <W(PB)>
-60.088

> <W(SA)>
1.903

> <Valence>
2.929

> <Coulomb>
46.006

> <VdW>
0.281

> <VdW6>
-4.909

> <VdW12>
5.190

> <Bond>
0.156

> <Angle>
0.974

> <Pdih>
1.799

> <Idih>
0.000

> <Tether>
0.000

$$$$
VeraChem MOL file


 20 19  0  0  0  0  0  0  0  0999 V2000     
   20.0708   18.7568   20.0803 N   0  3  0  0  0  0  0  0  0  0  0  0
   19.2399   19.3097   20.3099 H   0  0  0  0  0  0  0  0  0  0  0  0
   20.6688   19.3409   19.4874 H   0  0  0  0  0  0  0  0  0  0  0  0
   19.7578   17.9687   19.5039 H   0  0  0  0  0  0  0  0  0  0  0  0
   20.7965   18.2903   21.3271 C   0  0  0  0  0  0  0  0  0  0  0  0
   21.6492   17.6842   21.0091 H   0  0  0  0  0  0  0  0  0  0  0  0
   20.1179   17.6489   21.8955 H   0  0  0  0  0  0  0  0  0  0  0  0
   21.2939   19.4433   22.2225 C   0  0  0  0  0  0  0  0  0  0  0  0
   21.8701   19.0209   23.0556 H   0  0  0  0  0  0  0  0  0  0  0  0
   22.0004   20.0613   21.6529 H   0  0  0  0  0  0  0  0  0  0  0  0
   20.1598   20.3446   22.7779 C   0  0  0  0  0  0  0  0  0  0  0  0
   19.6915   20.8918   21.9488 H   0  0  0  0  0  0  0  0  0  0  0  0
   20.6040   21.1122   23.4266 H   0  0  0  0  0  0  0  0  0  0  0  0
   19.0589   19.5919   23.5680 C   0  0  0  0  0  0  0  0  0  0  0  0
   18.3016   20.3189   23.8934 H   0  0  0  0  0  0  0  0  0  0  0  0
   18.5350   18.8847   22.9108 H   0  0  0  0  0  0  0  0  0  0  0  0
   19.5974   18.8450   24.8095 C   0  0  0  0  0  0  0  0  0  0  0  0
   20.1406   19.5274   25.4759 H   0  0  0  0  0  0  0  0  0  0  0  0
   18.7707   18.4046   25.3818 H   0  0  0  0  0  0  0  0  0  0  0  0
   20.2741   18.0292   24.5266 H   0  0  0  0  0  0  0  0  0  0  0  0
  1  2  1  0  0  0  0
  1  3  1  0  0  0  0
  1  4  1  0  0  0  0
  1  5  1  0  0  0  0
  5  6  1  0  0  0  0
  5  7  1  0  0  0  0
  5  8  1  0  0  0  0
  8  9  1  0  0  0  0
  8 10  1  0  0  0  0
  8 11  1  0  0  0  0
 11 12  1  0  0  0  0
 11 13  1  0  0  0  0
 11 14  1  0  0  0  0
 14 15  1  0  0  0  0
 14 16  1  0  0  0  0
 14 17  1  0  0  0  0
 17 18  1  0  0  0  0
 17 19  1  0  0  0  0
 17 20  1  0  0  0  0
M  END
> <VConfSearch Rank>
187

> <Conf_Id>
2

> <Delta U+W>
0.994

> <U+W>
-10.784

> <U>
47.562

> <W>
-58.346

> <W(PB)>
-60.221

> <W(SA)>
1.875

> <Valence>
2.149

> <Coulomb>
45.034

> <VdW>
0.378

> <VdW6>
-5.599

> <VdW12>
5.977

> <Bond>
0.185

> <Angle>
0.935

> <Pdih>
1.028

> <Idih>
0.000

> <Tether>
0.000

$$$$
VeraChem MOL file


 20 19  0  0  0  0  0  0  0  0999 V2000     
   21.4980   20.7389   21.2997 N   0  3  0  0  0  0  0  0  0  0  0  0
   21.2121   21.7184   21.3940 H   0  0  0  0  0  0  0  0  0  0  0  0
   22.0083   20.4892   22.1519 H   0  0  0  0  0  0  0  0  0  0  0  0
   22.1680   20.6968   20.5248 H   0  0  0  0  0  0  0  0  0  0  0  0
   20.3105   19.8248   21.0687 C   0  0  0  0  0  0  0  0  0  0  0  0
   20.6853   18.8055   20.9443 H   0  0  0  0  0  0  0  0  0  0  0  0
   19.8344   20.1276   20.1322 H   0  0  0  0  0  0  0  0  0  0  0  0
   19.2702   19.8608   22.2066 C   0  0  0  0  0  0  0  0  0  0  0  0
   18.8756   20.8812   22.3005 H   0  0  0  0  0  0  0  0  0  0  0  0
   18.4148   19.2341   21.9239 H   0  0  0  0  0  0  0  0  0  0  0  0
   19.8226   19.3987   23.5808 C   0  0  0  0  0  0  0  0  0  0  0  0
   19.0073   19.4259   24.3168 H   0  0  0  0  0  0  0  0  0  0  0  0
   20.5669   20.1241   23.9359 H   0  0  0  0  0  0  0  0  0  0  0  0
   20.4582   17.9848   23.5840 C   0  0  0  0  0  0  0  0  0  0  0  0
   21.3372   17.9613   22.9258 H   0  0  0  0  0  0  0  0  0  0  0  0
   20.8326   17.7710   24.5949 H   0  0  0  0  0  0  0  0  0  0  0  0
   19.4718   16.8684   23.1723 C   0  0  0  0  0  0  0  0  0  0  0  0
   19.1563   16.9750   22.1270 H   0  0  0  0  0  0  0  0  0  0  0  0
   19.9422   15.8821   23.2761 H   0  0  0  0  0  0  0  0  0  0  0  0
   18.5751   16.8806   23.8054 H   0  0  0  0  0  0  0  0  0  0  0  0
  1  2  1  0  0  0  0
  1  3  1  0  0  0  0
  1  4  1  0  0  0  0
  1  5  1  0  0  0  0
  5  6  1  0  0  0  0
  5  7  1  0  0  0  0
  5  8  1  0  0  0  0
  8  9  1  0  0  0  0
  8 10  1  0  0  0  0
  8 11  1  0  0  0  0
 11 12  1  0  0  0  0
 11 13  1  0  0  0  0
 11 14  1  0  0  0  0
 14 15  1  0  0  0  0
 14 16  1  0  0  0  0
 14 17  1  0  0  0  0
 17 18  1  0  0  0  0
 17 19  1  0  0  0  0
 17 20  1  0  0  0  0
M  END
> <VConfSearch Rank>
188

> <Conf_Id>
1

> <Delta U+W>
1.032

> <U+W>
-10.746

> <U>
47.562

> <W>
-58.308

> <W(PB)>
-60.184

> <W(SA)>
1.877

> <Valence>
2.149

> <Coulomb>
45.035

> <VdW>
0.378

> <VdW6>
-5.599

> <VdW12>
5.978

> <Bond>
0.185

> <Angle>
0.935

> <Pdih>
1.028

> <Idih>
0.000

> <Tether>
0.000

$$$$
VeraChem MOL file


 20 19  0  0  0  0  0  0  0  0999 V2000     
   18.2442   18.5538   23.5660 N   0  3  0  0  0  0  0  0  0  0  0  0
   17.5990   17.9051   23.1047 H   0  0  0  0  0  0  0  0  0  0  0  0
   18.9974   17.9928   23.9743 H   0  0  0  0  0  0  0  0  0  0  0  0
   17.7320   18.9798   24.3455 H   0  0  0  0  0  0  0  0  0  0  0  0
   18.7773   19.5986   22.6048 C   0  0  0  0  0  0  0  0  0  0  0  0
   19.4290   20.2702   23.1658 H   0  0  0  0  0  0  0  0  0  0  0  0
   17.9239   20.1805   22.2460 H   0  0  0  0  0  0  0  0  0  0  0  0
   19.5301   19.0061   21.3945 C   0  0  0  0  0  0  0  0  0  0  0  0
   18.8450   18.3311   20.8646 H   0  0  0  0  0  0  0  0  0  0  0  0
   19.7680   19.8099   20.6852 H   0  0  0  0  0  0  0  0  0  0  0  0
   20.8248   18.2276   21.7523 C   0  0  0  0  0  0  0  0  0  0  0  0
   21.0327   17.5259   20.9327 H   0  0  0  0  0  0  0  0  0  0  0  0
   20.6676   17.6015   22.6399 H   0  0  0  0  0  0  0  0  0  0  0  0
   22.0884   19.1062   21.9410 C   0  0  0  0  0  0  0  0  0  0  0  0
   22.9498   18.4416   22.0965 H   0  0  0  0  0  0  0  0  0  0  0  0
   22.2969   19.6596   21.0146 H   0  0  0  0  0  0  0  0  0  0  0  0
   22.0128   20.0959   23.1245 C   0  0  0  0  0  0  0  0  0  0  0  0
   21.6937   19.5924   24.0461 H   0  0  0  0  0  0  0  0  0  0  0  0
   22.9975   20.5437   23.3112 H   0  0  0  0  0  0  0  0  0  0  0  0
   21.3193   20.9185   22.9138 H   0  0  0  0  0  0  0  0  0  0  0  0
  1  2  1  0  0  0  0
  1  3  1  0  0  0  0
  1  4  1  0  0  0  0
  1  5  1  0  0  0  0
  5  6  1  0  0  0  0
  5  7  1  0  0  0  0
  5  8  1  0  0  0  0
  8  9  1  0  0  0  0
  8 10  1  0  0  0  0
  8 11  1  0  0  0  0
 11 12  1  0  0  0  0
 11 13  1  0  0  0  0
 11 14  1  0  0  0  0
 14 15  1  0  0  0  0
 14 16  1  0  0  0  0
 14 17  1  0  0  0  0
 17 18  1  0  0  0  0
 17 19  1  0  0  0  0
 17 20  1  0  0  0  0
M  END
> <VConfSearch Rank>
189

> <Conf_Id>
80

> <Delta U+W>
2.920

> <U+W>
-8.857

> <U>
49.434

> <W>
-58.292

> <W(PB)>
-60.170

> <W(SA)>
1.879

> <Valence>
3.798

> <Coulomb>
45.253

> <VdW>
0.384

> <VdW6>
-5.595

> <VdW12>
5.979

> <Bond>
0.198

> <Angle>
1.368

> <Pdih>
2.231

> <Idih>
0.000

> <Tether>
0.000

$$$$
VeraChem MOL file


 20 19  0  0  0  0  0  0  0  0999 V2000     
   19.5132   20.6240   24.2055 N   0  3  0  0  0  0  0  0  0  0  0  0
   18.9254   21.4308   23.9738 H   0  0  0  0  0  0  0  0  0  0  0  0
   19.4877   20.5197   25.2252 H   0  0  0  0  0  0  0  0  0  0  0  0
   20.4754   20.8681   23.9539 H   0  0  0  0  0  0  0  0  0  0  0  0
   19.0479   19.3654   23.4990 C   0  0  0  0  0  0  0  0  0  0  0  0
   18.0352   19.1477   23.8490 H   0  0  0  0  0  0  0  0  0  0  0  0
   19.6949   18.5448   23.8132 H   0  0  0  0  0  0  0  0  0  0  0  0
   19.0370   19.4819   21.9599 C   0  0  0  0  0  0  0  0  0  0  0  0
   18.5686   18.5863   21.5307 H   0  0  0  0  0  0  0  0  0  0  0  0
   18.3846   20.3220   21.6868 H   0  0  0  0  0  0  0  0  0  0  0  0
   20.4322   19.6996   21.3148 C   0  0  0  0  0  0  0  0  0  0  0  0
   21.0211   20.4186   21.8987 H   0  0  0  0  0  0  0  0  0  0  0  0
   20.2797   20.1739   20.3354 H   0  0  0  0  0  0  0  0  0  0  0  0
   21.2560   18.4072   21.0799 C   0  0  0  0  0  0  0  0  0  0  0  0
   20.7016   17.7299   20.4153 H   0  0  0  0  0  0  0  0  0  0  0  0
   22.1737   18.6774   20.5389 H   0  0  0  0  0  0  0  0  0  0  0  0
   21.6508   17.6529   22.3687 C   0  0  0  0  0  0  0  0  0  0  0  0
   20.7828   17.1655   22.8282 H   0  0  0  0  0  0  0  0  0  0  0  0
   22.3807   16.8650   22.1415 H   0  0  0  0  0  0  0  0  0  0  0  0
   22.1060   18.3293   23.1035 H   0  0  0  0  0  0  0  0  0  0  0  0
  1  2  1  0  0  0  0
  1  3  1  0  0  0  0
  1  4  1  0  0  0  0
  1  5  1  0  0  0  0
  5  6  1  0  0  0  0
  5  7  1  0  0  0  0
  5  8  1  0  0  0  0
  8  9  1  0  0  0  0
  8 10  1  0  0  0  0
  8 11  1  0  0  0  0
 11 12  1  0  0  0  0
 11 13  1  0  0  0  0
 11 14  1  0  0  0  0
 14 15  1  0  0  0  0
 14 16  1  0  0  0  0
 14 17  1  0  0  0  0
 17 18  1  0  0  0  0
 17 19  1  0  0  0  0
 17 20  1  0  0  0  0
M  END
> <VConfSearch Rank>
190

> <Conf_Id>
65

> <Delta U+W>
2.949

> <U+W>
-8.829

> <U>
49.435

> <W>
-58.263

> <W(PB)>
-60.125

> <W(SA)>
1.862

> <Valence>
3.797

> <Coulomb>
45.253

> <VdW>
0.384

> <VdW6>
-5.596

> <VdW12>
5.980

> <Bond>
0.198

> <Angle>
1.369

> <Pdih>
2.230

> <Idih>
0.000

> <Tether>
0.000

$$$$
VeraChem MOL file


 20 19  0  0  0  0  0  0  0  0999 V2000     
   20.0458   17.2711   22.6710 N   0  3  0  0  0  0  0  0  0  0  0  0
   20.7082   16.4956   22.7780 H   0  0  0  0  0  0  0  0  0  0  0  0
   20.1806   17.9006   23.4680 H   0  0  0  0  0  0  0  0  0  0  0  0
   19.1050   16.8728   22.7525 H   0  0  0  0  0  0  0  0  0  0  0  0
   20.2368   17.9978   21.3538 C   0  0  0  0  0  0  0  0  0  0  0  0
   20.0757   17.2651   20.5585 H   0  0  0  0  0  0  0  0  0  0  0  0
   21.2718   18.3443   21.2912 H   0  0  0  0  0  0  0  0  0  0  0  0
   19.2737   19.1846   21.1476 C   0  0  0  0  0  0  0  0  0  0  0  0
   19.1931   19.3649   20.0674 H   0  0  0  0  0  0  0  0  0  0  0  0
   18.2646   18.9065   21.4796 H   0  0  0  0  0  0  0  0  0  0  0  0
   19.7103   20.5149   21.8181 C   0  0  0  0  0  0  0  0  0  0  0  0
   18.9687   21.2786   21.5456 H   0  0  0  0  0  0  0  0  0  0  0  0
   20.6590   20.8595   21.3837 H   0  0  0  0  0  0  0  0  0  0  0  0
   19.8154   20.4787   23.3641 C   0  0  0  0  0  0  0  0  0  0  0  0
   19.4930   21.4523   23.7596 H   0  0  0  0  0  0  0  0  0  0  0  0
   19.1128   19.7441   23.7801 H   0  0  0  0  0  0  0  0  0  0  0  0
   21.2541   20.2166   23.8694 C   0  0  0  0  0  0  0  0  0  0  0  0
   21.6803   19.2937   23.4617 H   0  0  0  0  0  0  0  0  0  0  0  0
   21.9201   21.0408   23.5824 H   0  0  0  0  0  0  0  0  0  0  0  0
   21.2723   20.1438   24.9647 H   0  0  0  0  0  0  0  0  0  0  0  0
  1  2  1  0  0  0  0
  1  3  1  0  0  0  0
  1  4  1  0  0  0  0
  1  5  1  0  0  0  0
  5  6  1  0  0  0  0
  5  7  1  0  0  0  0
  5  8  1  0  0  0  0
  8  9  1  0  0  0  0
  8 10  1  0  0  0  0
  8 11  1  0  0  0  0
 11 12  1  0  0  0  0
 11 13  1  0  0  0  0
 11 14  1  0  0  0  0
 14 15  1  0  0  0  0
 14 16  1  0  0  0  0
 14 17  1  0  0  0  0
 17 18  1  0  0  0  0
 17 19  1  0  0  0  0
 17 20  1  0  0  0  0
M  END
> <VConfSearch Rank>
191

> <Conf_Id>
77

> <Delta U+W>
5.366

> <U+W>
-6.412

> <U>
51.542

> <W>
-57.954

> <W(PB)>
-59.811

> <W(SA)>
1.857

> <Valence>
5.347

> <Coulomb>
45.870

> <VdW>
0.325

> <VdW6>
-6.161

> <VdW12>
6.486

> <Bond>
0.201

> <Angle>
1.484

> <Pdih>
3.662

> <Idih>
0.000

> <Tether>
0.000

$$$$
VeraChem MOL file


 20 19  0  0  0  0  0  0  0  0999 V2000     
   20.9251   20.7416   23.1266 N   0  3  0  0  0  0  0  0  0  0  0  0
   20.6202   21.0031   24.0695 H   0  0  0  0  0  0  0  0  0  0  0  0
   21.4472   19.8638   23.2074 H   0  0  0  0  0  0  0  0  0  0  0  0
   21.5847   21.4627   22.8157 H   0  0  0  0  0  0  0  0  0  0  0  0
   19.7527   20.6021   22.1749 C   0  0  0  0  0  0  0  0  0  0  0  0
   20.1370   20.3881   21.1740 H   0  0  0  0  0  0  0  0  0  0  0  0
   19.2488   21.5720   22.1445 H   0  0  0  0  0  0  0  0  0  0  0  0
   18.7355   19.5191   22.5882 C   0  0  0  0  0  0  0  0  0  0  0  0
   18.5604   19.5675   23.6712 H   0  0  0  0  0  0  0  0  0  0  0  0
   17.7743   19.7680   22.1193 H   0  0  0  0  0  0  0  0  0  0  0  0
   19.1051   18.0706   22.1698 C   0  0  0  0  0  0  0  0  0  0  0  0
   19.1469   17.9964   21.0743 H   0  0  0  0  0  0  0  0  0  0  0  0
   18.2753   17.4187   22.4762 H   0  0  0  0  0  0  0  0  0  0  0  0
   20.4098   17.5099   22.7910 C   0  0  0  0  0  0  0  0  0  0  0  0
   20.5966   17.9681   23.7716 H   0  0  0  0  0  0  0  0  0  0  0  0
   20.2708   16.4375   22.9881 H   0  0  0  0  0  0  0  0  0  0  0  0
   21.6393   17.6644   21.8646 C   0  0  0  0  0  0  0  0  0  0  0  0
   22.5484   17.3061   22.3650 H   0  0  0  0  0  0  0  0  0  0  0  0
   21.5103   17.0710   20.9500 H   0  0  0  0  0  0  0  0  0  0  0  0
   21.8074   18.7031   21.5603 H   0  0  0  0  0  0  0  0  0  0  0  0
  1  2  1  0  0  0  0
  1  3  1  0  0  0  0
  1  4  1  0  0  0  0
  1  5  1  0  0  0  0
  5  6  1  0  0  0  0
  5  7  1  0  0  0  0
  5  8  1  0  0  0  0
  8  9  1  0  0  0  0
  8 10  1  0  0  0  0
  8 11  1  0  0  0  0
 11 12  1  0  0  0  0
 11 13  1  0  0  0  0
 11 14  1  0  0  0  0
 14 15  1  0  0  0  0
 14 16  1  0  0  0  0
 14 17  1  0  0  0  0
 17 18  1  0  0  0  0
 17 19  1  0  0  0  0
 17 20  1  0  0  0  0
M  END
> <VConfSearch Rank>
192

> <Conf_Id>
67

> <Delta U+W>
5.353

> <U+W>
-6.425

> <U>
51.541

> <W>
-57.966

> <W(PB)>
-59.821

> <W(SA)>
1.855

> <Valence>
5.347

> <Coulomb>
45.870

> <VdW>
0.325

> <VdW6>
-6.161

> <VdW12>
6.486

> <Bond>
0.201

> <Angle>
1.485

> <Pdih>
3.662

> <Idih>
0.000

> <Tether>
0.000

$$$$
VeraChem MOL file


 20 19  0  0  0  0  0  0  0  0999 V2000     
   17.0324   18.4304   22.1068 N   0  3  0  0  0  0  0  0  0  0  0  0
   16.7806   19.2133   21.4951 H   0  0  0  0  0  0  0  0  0  0  0  0
   16.4696   17.6269   21.8080 H   0  0  0  0  0  0  0  0  0  0  0  0
   16.7220   18.6751   23.0524 H   0  0  0  0  0  0  0  0  0  0  0  0
   18.5165   18.1278   22.0581 C   0  0  0  0  0  0  0  0  0  0  0  0
   18.7701   17.8467   21.0323 H   0  0  0  0  0  0  0  0  0  0  0  0
   18.7071   17.2683   22.7066 H   0  0  0  0  0  0  0  0  0  0  0  0
   19.3908   19.3146   22.5010 C   0  0  0  0  0  0  0  0  0  0  0  0
   19.1844   20.1801   21.8572 H   0  0  0  0  0  0  0  0  0  0  0  0
   19.1217   19.6038   23.5257 H   0  0  0  0  0  0  0  0  0  0  0  0
   20.8943   18.9651   22.4367 C   0  0  0  0  0  0  0  0  0  0  0  0
   21.1589   18.6712   21.4114 H   0  0  0  0  0  0  0  0  0  0  0  0
   21.0962   18.0956   23.0779 H   0  0  0  0  0  0  0  0  0  0  0  0
   21.7821   20.1498   22.8793 C   0  0  0  0  0  0  0  0  0  0  0  0
   21.5847   21.0212   22.2391 H   0  0  0  0  0  0  0  0  0  0  0  0
   21.5221   20.4456   23.9054 H   0  0  0  0  0  0  0  0  0  0  0  0
   23.2832   19.7960   22.8134 C   0  0  0  0  0  0  0  0  0  0  0  0
   23.5816   19.5288   21.7913 H   0  0  0  0  0  0  0  0  0  0  0  0
   23.8969   20.6490   23.1310 H   0  0  0  0  0  0  0  0  0  0  0  0
   23.5186   18.9488   23.4707 H   0  0  0  0  0  0  0  0  0  0  0  0
  1  2  1  0  0  0  0
  1  3  1  0  0  0  0
  1  4  1  0  0  0  0
  1  5  1  0  0  0  0
  5  6  1  0  0  0  0
  5  7  1  0  0  0  0
  5  8  1  0  0  0  0
  8  9  1  0  0  0  0
  8 10  1  0  0  0  0
  8 11  1  0  0  0  0
 11 12  1  0  0  0  0
 11 13  1  0  0  0  0
 11 14  1  0  0  0  0
 14 15  1  0  0  0  0
 14 16  1  0  0  0  0
 14 17  1  0  0  0  0
 17 18  1  0  0  0  0
 17 19  1  0  0  0  0
 17 20  1  0  0  0  0
M  END
> <VConfSearch Rank>
193

> <Conf_Id>
72

> <Delta U+W>
0.000

> <U+W>
-11.778

> <U>
45.772

> <W>
-57.550

> <W(PB)>
-59.511

> <W(SA)>
1.961

> <Valence>
1.299

> <Coulomb>
44.177

> <VdW>
0.297

> <VdW6>
-3.490

> <VdW12>
3.786

> <Bond>
0.096

> <Angle>
0.381

> <Pdih>
0.822

> <Idih>
0.000

> <Tether>
0.000

$$$$
VeraChem MOL file


 20 19  0  0  0  0  0  0  0  0999 V2000     
   17.6822   19.2912   24.2608 N   0  3  0  0  0  0  0  0  0  0  0  0
   17.1974   18.5948   23.6860 H   0  0  0  0  0  0  0  0  0  0  0  0
   18.0809   18.7944   25.0636 H   0  0  0  0  0  0  0  0  0  0  0  0
   16.9643   19.9239   24.6295 H   0  0  0  0  0  0  0  0  0  0  0  0
   18.7405   20.0379   23.4741 C   0  0  0  0  0  0  0  0  0  0  0  0
   19.1924   20.7806   24.1371 H   0  0  0  0  0  0  0  0  0  0  0  0
   18.2432   20.5657   22.6558 H   0  0  0  0  0  0  0  0  0  0  0  0
   19.8350   19.1166   22.9062 C   0  0  0  0  0  0  0  0  0  0  0  0
   20.3209   18.5767   23.7298 H   0  0  0  0  0  0  0  0  0  0  0  0
   19.3685   18.3649   22.2570 H   0  0  0  0  0  0  0  0  0  0  0  0
   20.8934   19.9200   22.1141 C   0  0  0  0  0  0  0  0  0  0  0  0
   21.2936   20.7160   22.7576 H   0  0  0  0  0  0  0  0  0  0  0  0
   20.4150   20.4233   21.2624 H   0  0  0  0  0  0  0  0  0  0  0  0
   22.0740   19.0558   21.6081 C   0  0  0  0  0  0  0  0  0  0  0  0
   22.8245   19.7165   21.1519 H   0  0  0  0  0  0  0  0  0  0  0  0
   22.5704   18.5693   22.4594 H   0  0  0  0  0  0  0  0  0  0  0  0
   21.6546   17.9884   20.5716 C   0  0  0  0  0  0  0  0  0  0  0  0
   21.1304   18.4462   19.7227 H   0  0  0  0  0  0  0  0  0  0  0  0
   22.5370   17.4669   20.1788 H   0  0  0  0  0  0  0  0  0  0  0  0
   20.9958   17.2317   21.0154 H   0  0  0  0  0  0  0  0  0  0  0  0
  1  2  1  0  0  0  0
  1  3  1  0  0  0  0
  1  4  1  0  0  0  0
  1  5  1  0  0  0  0
  5  6  1  0  0  0  0
  5  7  1  0  0  0  0
  5  8  1  0  0  0  0
  8  9  1  0  0  0  0
  8 10  1  0  0  0  0
  8 11  1  0  0  0  0
 11 12  1  0  0  0  0
 11 13  1  0  0  0  0
 11 14  1  0  0  0  0
 14 15  1  0  0  0  0
 14 16  1  0  0  0  0
 14 17  1  0  0  0  0
 17 18  1  0  0  0  0
 17 19  1  0  0  0  0
 17 20  1  0  0  0  0
M  END
> <VConfSearch Rank>
194

> <Conf_Id>
42

> <Delta U+W>
0.508

> <U+W>
-11.270

> <U>
46.486

> <W>
-57.756

> <W(PB)>
-59.705

> <W(SA)>
1.949

> <Valence>
1.806

> <Coulomb>
44.248

> <VdW>
0.433

> <VdW6>
-4.089

> <VdW12>
4.522

> <Bond>
0.131

> <Angle>
0.628

> <Pdih>
1.047

> <Idih>
0.000

> <Tether>
0.000

$$$$
VeraChem MOL file


 20 19  0  0  0  0  0  0  0  0999 V2000     
   19.3826   16.7571   20.7111 N   0  3  0  0  0  0  0  0  0  0  0  0
   19.5193   16.0065   21.3954 H   0  0  0  0  0  0  0  0  0  0  0  0
   18.3947   17.0266   20.7529 H   0  0  0  0  0  0  0  0  0  0  0  0
   19.5398   16.3468   19.7846 H   0  0  0  0  0  0  0  0  0  0  0  0
   20.3023   17.9336   20.9692 C   0  0  0  0  0  0  0  0  0  0  0  0
   20.1246   18.6786   20.1890 H   0  0  0  0  0  0  0  0  0  0  0  0
   21.3336   17.5816   20.8791 H   0  0  0  0  0  0  0  0  0  0  0  0
   20.0927   18.5735   22.3534 C   0  0  0  0  0  0  0  0  0  0  0  0
   19.0507   18.9066   22.4393 H   0  0  0  0  0  0  0  0  0  0  0  0
   20.2567   17.8179   23.1332 H   0  0  0  0  0  0  0  0  0  0  0  0
   21.0523   19.7666   22.5743 C   0  0  0  0  0  0  0  0  0  0  0  0
   20.8568   20.5431   21.8217 H   0  0  0  0  0  0  0  0  0  0  0  0
   22.0853   19.4302   22.4090 H   0  0  0  0  0  0  0  0  0  0  0  0
   20.9558   20.3830   23.9911 C   0  0  0  0  0  0  0  0  0  0  0  0
   21.1743   19.6152   24.7464 H   0  0  0  0  0  0  0  0  0  0  0  0
   21.7376   21.1483   24.0966 H   0  0  0  0  0  0  0  0  0  0  0  0
   19.5833   21.0291   24.2884 C   0  0  0  0  0  0  0  0  0  0  0  0
   18.7818   20.2805   24.3138 H   0  0  0  0  0  0  0  0  0  0  0  0
   19.5978   21.5291   25.2656 H   0  0  0  0  0  0  0  0  0  0  0  0
   19.3282   21.7814   23.5308 H   0  0  0  0  0  0  0  0  0  0  0  0
  1  2  1  0  0  0  0
  1  3  1  0  0  0  0
  1  4  1  0  0  0  0
  1  5  1  0  0  0  0
  5  6  1  0  0  0  0
  5  7  1  0  0  0  0
  5  8  1  0  0  0  0
  8  9  1  0  0  0  0
  8 10  1  0  0  0  0
  8 11  1  0  0  0  0
 11 12  1  0  0  0  0
 11 13  1  0  0  0  0
 11 14  1  0  0  0  0
 14 15  1  0  0  0  0
 14 16  1  0  0  0  0
 14 17  1  0  0  0  0
 17 18  1  0  0  0  0
 17 19  1  0  0  0  0
 17 20  1  0  0  0  0
M  END
> <VConfSearch Rank>
195

> <Conf_Id>
41

> <Delta U+W>
0.515

> <U+W>
-11.263

> <U>
46.486

> <W>
-57.749

> <W(PB)>
-59.685

> <W(SA)>
1.936

> <Valence>
1.806

> <Coulomb>
44.248

> <VdW>
0.433

> <VdW6>
-4.089

> <VdW12>
4.522

> <Bond>
0.131

> <Angle>
0.628

> <Pdih>
1.047

> <Idih>
0.000

> <Tether>
0.000

$$$$
VeraChem MOL file


 20 19  0  0  0  0  0  0  0  0999 V2000     
   20.0242   18.8436   19.7143 N   0  3  0  0  0  0  0  0  0  0  0  0
   19.6527   18.3980   18.8687 H   0  0  0  0  0  0  0  0  0  0  0  0
   19.4657   19.6865   19.8769 H   0  0  0  0  0  0  0  0  0  0  0  0
   20.9775   19.1494   19.4953 H   0  0  0  0  0  0  0  0  0  0  0  0
   19.9916   17.9053   20.9054 C   0  0  0  0  0  0  0  0  0  0  0  0
   20.5696   17.0156   20.6410 H   0  0  0  0  0  0  0  0  0  0  0  0
   18.9546   17.6002   21.0696 H   0  0  0  0  0  0  0  0  0  0  0  0
   20.5631   18.5180   22.1991 C   0  0  0  0  0  0  0  0  0  0  0  0
   20.6024   17.7277   22.9591 H   0  0  0  0  0  0  0  0  0  0  0  0
   21.5988   18.8392   22.0260 H   0  0  0  0  0  0  0  0  0  0  0  0
   19.7180   19.7066   22.7227 C   0  0  0  0  0  0  0  0  0  0  0  0
   18.6891   19.3723   22.9153 H   0  0  0  0  0  0  0  0  0  0  0  0
   19.6515   20.4785   21.9447 H   0  0  0  0  0  0  0  0  0  0  0  0
   20.2973   20.3587   24.0018 C   0  0  0  0  0  0  0  0  0  0  0  0
   21.3219   20.7072   23.8103 H   0  0  0  0  0  0  0  0  0  0  0  0
   19.7075   21.2556   24.2377 H   0  0  0  0  0  0  0  0  0  0  0  0
   20.2880   19.4210   25.2308 C   0  0  0  0  0  0  0  0  0  0  0  0
   20.9640   18.5680   25.0936 H   0  0  0  0  0  0  0  0  0  0  0  0
   20.6177   19.9607   26.1279 H   0  0  0  0  0  0  0  0  0  0  0  0
   19.2794   19.0335   25.4247 H   0  0  0  0  0  0  0  0  0  0  0  0
  1  2  1  0  0  0  0
  1  3  1  0  0  0  0
  1  4  1  0  0  0  0
  1  5  1  0  0  0  0
  5  6  1  0  0  0  0
  5  7  1  0  0  0  0
  5  8  1  0  0  0  0
  8  9  1  0  0  0  0
  8 10  1  0  0  0  0
  8 11  1  0  0  0  0
 11 12  1  0  0  0  0
 11 13  1  0  0  0  0
 11 14  1  0  0  0  0
 14 15  1  0  0  0  0
 14 16  1  0  0  0  0
 14 17  1  0  0  0  0
 17 18  1  0  0  0  0
 17 19  1  0  0  0  0
 17 20  1  0  0  0  0
M  END
> <VConfSearch Rank>
196

> <Conf_Id>
33

> <Delta U+W>
0.703

> <U+W>
-11.075

> <U>
47.080

> <W>
-58.154

> <W(PB)>
-60.053

> <W(SA)>
1.899

> <Valence>
1.943

> <Coulomb>
44.572

> <VdW>
0.565

> <VdW6>
-4.575

> <VdW12>
5.139

> <Bond>
0.158

> <Angle>
0.700

> <Pdih>
1.085

> <Idih>
0.000

> <Tether>
0.000

$$$$
VeraChem MOL file


 20 19  0  0  0  0  0  0  0  0999 V2000     
   20.4753   18.9581   25.2050 N   0  3  0  0  0  0  0  0  0  0  0  0
   21.0524   18.7933   26.0365 H   0  0  0  0  0  0  0  0  0  0  0  0
   19.7412   19.6189   25.4784 H   0  0  0  0  0  0  0  0  0  0  0  0
   20.0157   18.0708   24.9805 H   0  0  0  0  0  0  0  0  0  0  0  0
   21.2990   19.4781   24.0425 C   0  0  0  0  0  0  0  0  0  0  0  0
   22.0741   18.7404   23.8181 H   0  0  0  0  0  0  0  0  0  0  0  0
   21.7905   20.3979   24.3711 H   0  0  0  0  0  0  0  0  0  0  0  0
   20.4746   19.7671   22.7726 C   0  0  0  0  0  0  0  0  0  0  0  0
   19.6862   20.4950   23.0052 H   0  0  0  0  0  0  0  0  0  0  0  0
   21.1373   20.2451   22.0405 H   0  0  0  0  0  0  0  0  0  0  0  0
   19.8526   18.4874   22.1587 C   0  0  0  0  0  0  0  0  0  0  0  0
   19.2193   17.9935   22.9074 H   0  0  0  0  0  0  0  0  0  0  0  0
   20.6489   17.7730   21.9077 H   0  0  0  0  0  0  0  0  0  0  0  0
   18.9905   18.7626   20.9026 C   0  0  0  0  0  0  0  0  0  0  0  0
   18.4987   17.8270   20.6014 H   0  0  0  0  0  0  0  0  0  0  0  0
   18.1840   19.4663   21.1519 H   0  0  0  0  0  0  0  0  0  0  0  0
   19.8022   19.3050   19.7040 C   0  0  0  0  0  0  0  0  0  0  0  0
   20.6348   18.6344   19.4546 H   0  0  0  0  0  0  0  0  0  0  0  0
   19.1636   19.3909   18.8153 H   0  0  0  0  0  0  0  0  0  0  0  0
   20.2125   20.3010   19.9112 H   0  0  0  0  0  0  0  0  0  0  0  0
  1  2  1  0  0  0  0
  1  3  1  0  0  0  0
  1  4  1  0  0  0  0
  1  5  1  0  0  0  0
  5  6  1  0  0  0  0
  5  7  1  0  0  0  0
  5  8  1  0  0  0  0
  8  9  1  0  0  0  0
  8 10  1  0  0  0  0
  8 11  1  0  0  0  0
 11 12  1  0  0  0  0
 11 13  1  0  0  0  0
 11 14  1  0  0  0  0
 14 15  1  0  0  0  0
 14 16  1  0  0  0  0
 14 17  1  0  0  0  0
 17 18  1  0  0  0  0
 17 19  1  0  0  0  0
 17 20  1  0  0  0  0
M  END
> <VConfSearch Rank>
197

> <Conf_Id>
24

> <Delta U+W>
0.847

> <U+W>
-10.931

> <U>
47.080

> <W>
-58.011

> <W(PB)>
-59.914

> <W(SA)>
1.903

> <Valence>
1.943

> <Coulomb>
44.572

> <VdW>
0.565

> <VdW6>
-4.575

> <VdW12>
5.140

> <Bond>
0.158

> <Angle>
0.700

> <Pdih>
1.085

> <Idih>
0.000

> <Tether>
0.000

$$$$
VeraChem MOL file


 20 19  0  0  0  0  0  0  0  0999 V2000     
   22.3121   18.1104   23.7509 N   0  3  0  0  0  0  0  0  0  0  0  0
   22.6196   18.2785   24.7145 H   0  0  0  0  0  0  0  0  0  0  0  0
   21.8858   17.1786   23.7331 H   0  0  0  0  0  0  0  0  0  0  0  0
   23.1573   18.0661   23.1730 H   0  0  0  0  0  0  0  0  0  0  0  0
   21.3535   19.1812   23.2706 C   0  0  0  0  0  0  0  0  0  0  0  0
   21.8612   20.1468   23.3436 H   0  0  0  0  0  0  0  0  0  0  0  0
   20.4953   19.1918   23.9476 H   0  0  0  0  0  0  0  0  0  0  0  0
   20.8713   18.9577   21.8249 C   0  0  0  0  0  0  0  0  0  0  0  0
   21.7432   18.9073   21.1594 H   0  0  0  0  0  0  0  0  0  0  0  0
   20.3695   17.9846   21.7484 H   0  0  0  0  0  0  0  0  0  0  0  0
   19.9276   20.0810   21.3273 C   0  0  0  0  0  0  0  0  0  0  0  0
   19.6330   19.8657   20.2909 H   0  0  0  0  0  0  0  0  0  0  0  0
   20.4864   21.0266   21.2921 H   0  0  0  0  0  0  0  0  0  0  0  0
   18.6523   20.2871   22.1843 C   0  0  0  0  0  0  0  0  0  0  0  0
   18.9246   20.6071   23.1993 H   0  0  0  0  0  0  0  0  0  0  0  0
   18.0710   21.1144   21.7537 H   0  0  0  0  0  0  0  0  0  0  0  0
   17.7526   19.0325   22.2587 C   0  0  0  0  0  0  0  0  0  0  0  0
   16.8224   19.2578   22.7961 H   0  0  0  0  0  0  0  0  0  0  0  0
   17.4830   18.6798   21.2547 H   0  0  0  0  0  0  0  0  0  0  0  0
   18.2496   18.2113   22.7901 H   0  0  0  0  0  0  0  0  0  0  0  0
  1  2  1  0  0  0  0
  1  3  1  0  0  0  0
  1  4  1  0  0  0  0
  1  5  1  0  0  0  0
  5  6  1  0  0  0  0
  5  7  1  0  0  0  0
  5  8  1  0  0  0  0
  8  9  1  0  0  0  0
  8 10  1  0  0  0  0
  8 11  1  0  0  0  0
 11 12  1  0  0  0  0
 11 13  1  0  0  0  0
 11 14  1  0  0  0  0
 14 15  1  0  0  0  0
 14 16  1  0  0  0  0
 14 17  1  0  0  0  0
 17 18  1  0  0  0  0
 17 19  1  0  0  0  0
 17 20  1  0  0  0  0
M  END
> <VConfSearch Rank>
198

> <Conf_Id>
64

> <Delta U+W>
0.707

> <U+W>
-11.070

> <U>
47.077

> <W>
-58.148

> <W(PB)>
-60.054

> <W(SA)>
1.906

> <Valence>
2.039

> <Coulomb>
44.655

> <VdW>
0.383

> <VdW6>
-4.912

> <VdW12>
5.295

> <Bond>
0.159

> <Angle>
0.856

> <Pdih>
1.024

> <Idih>
0.000

> <Tether>
0.000

$$$$
VeraChem MOL file


 20 19  0  0  0  0  0  0  0  0999 V2000     
   17.8023   18.8568   23.8111 N   0  3  0  0  0  0  0  0  0  0  0  0
   17.7259   19.4483   24.6446 H   0  0  0  0  0  0  0  0  0  0  0  0
   17.3129   19.3412   23.0521 H   0  0  0  0  0  0  0  0  0  0  0  0
   17.2746   17.9994   24.0059 H   0  0  0  0  0  0  0  0  0  0  0  0
   19.2458   18.5614   23.4569 C   0  0  0  0  0  0  0  0  0  0  0  0
   19.2494   17.9054   22.5825 H   0  0  0  0  0  0  0  0  0  0  0  0
   19.6956   18.0212   24.2942 H   0  0  0  0  0  0  0  0  0  0  0  0
   20.0672   19.8296   23.1576 C   0  0  0  0  0  0  0  0  0  0  0  0
   19.6112   20.3775   22.3231 H   0  0  0  0  0  0  0  0  0  0  0  0
   20.0224   20.4997   24.0264 H   0  0  0  0  0  0  0  0  0  0  0  0
   21.5519   19.5213   22.8407 C   0  0  0  0  0  0  0  0  0  0  0  0
   22.0241   19.0870   23.7329 H   0  0  0  0  0  0  0  0  0  0  0  0
   22.0791   20.4662   22.6498 H   0  0  0  0  0  0  0  0  0  0  0  0
   21.7766   18.5644   21.6419 C   0  0  0  0  0  0  0  0  0  0  0  0
   22.8568   18.4023   21.5208 H   0  0  0  0  0  0  0  0  0  0  0  0
   21.3467   17.5770   21.8586 H   0  0  0  0  0  0  0  0  0  0  0  0
   21.2016   19.1010   20.3112 C   0  0  0  0  0  0  0  0  0  0  0  0
   21.6006   20.0976   20.0820 H   0  0  0  0  0  0  0  0  0  0  0  0
   21.4674   18.4340   19.4809 H   0  0  0  0  0  0  0  0  0  0  0  0
   20.1070   19.1674   20.3431 H   0  0  0  0  0  0  0  0  0  0  0  0
  1  2  1  0  0  0  0
  1  3  1  0  0  0  0
  1  4  1  0  0  0  0
  1  5  1  0  0  0  0
  5  6  1  0  0  0  0
  5  7  1  0  0  0  0
  5  8  1  0  0  0  0
  8  9  1  0  0  0  0
  8 10  1  0  0  0  0
  8 11  1  0  0  0  0
 11 12  1  0  0  0  0
 11 13  1  0  0  0  0
 11 14  1  0  0  0  0
 14 15  1  0  0  0  0
 14 16  1  0  0  0  0
 14 17  1  0  0  0  0
 17 18  1  0  0  0  0
 17 19  1  0  0  0  0
 17 20  1  0  0  0  0
M  END
> <VConfSearch Rank>
199

> <Conf_Id>
22

> <Delta U+W>
0.731

> <U+W>
-11.047

> <U>
47.078

> <W>
-58.125

> <W(PB)>
-60.031

> <W(SA)>
1.906

> <Valence>
2.039

> <Coulomb>
44.655

> <VdW>
0.383

> <VdW6>
-4.913

> <VdW12>
5.296

> <Bond>
0.159

> <Angle>
0.856

> <Pdih>
1.024

> <Idih>
0.000

> <Tether>
0.000

$$$$
VeraChem MOL file


 20 19  0  0  0  0  0  0  0  0999 V2000     
   22.8684   19.4608   22.0328 N   0  3  0  0  0  0  0  0  0  0  0  0
   22.9738   20.4770   21.9513 H   0  0  0  0  0  0  0  0  0  0  0  0
   23.4409   19.1616   22.8284 H   0  0  0  0  0  0  0  0  0  0  0  0
   23.2891   19.0498   21.1929 H   0  0  0  0  0  0  0  0  0  0  0  0
   21.4177   19.0530   22.1937 C   0  0  0  0  0  0  0  0  0  0  0  0
   21.3769   17.9617   22.2466 H   0  0  0  0  0  0  0  0  0  0  0  0
   20.8808   19.3782   21.2997 H   0  0  0  0  0  0  0  0  0  0  0  0
   20.7550   19.6588   23.4437 C   0  0  0  0  0  0  0  0  0  0  0  0
   21.3731   19.4231   24.3203 H   0  0  0  0  0  0  0  0  0  0  0  0
   20.7440   20.7534   23.3575 H   0  0  0  0  0  0  0  0  0  0  0  0
   19.3170   19.1431   23.7047 C   0  0  0  0  0  0  0  0  0  0  0  0
   18.9829   19.5680   24.6615 H   0  0  0  0  0  0  0  0  0  0  0  0
   19.3256   18.0541   23.8508 H   0  0  0  0  0  0  0  0  0  0  0  0
   18.2777   19.5296   22.6204 C   0  0  0  0  0  0  0  0  0  0  0  0
   17.2887   19.5884   23.0964 H   0  0  0  0  0  0  0  0  0  0  0  0
   18.4865   20.5369   22.2339 H   0  0  0  0  0  0  0  0  0  0  0  0
   18.1815   18.5170   21.4549 C   0  0  0  0  0  0  0  0  0  0  0  0
   19.1056   18.4674   20.8698 H   0  0  0  0  0  0  0  0  0  0  0  0
   17.9591   17.5085   21.8269 H   0  0  0  0  0  0  0  0  0  0  0  0
   17.3745   18.8021   20.7676 H   0  0  0  0  0  0  0  0  0  0  0  0
  1  2  1  0  0  0  0
  1  3  1  0  0  0  0
  1  4  1  0  0  0  0
  1  5  1  0  0  0  0
  5  6  1  0  0  0  0
  5  7  1  0  0  0  0
  5  8  1  0  0  0  0
  8  9  1  0  0  0  0
  8 10  1  0  0  0  0
  8 11  1  0  0  0  0
 11 12  1  0  0  0  0
 11 13  1  0  0  0  0
 11 14  1  0  0  0  0
 14 15  1  0  0  0  0
 14 16  1  0  0  0  0
 14 17  1  0  0  0  0
 17 18  1  0  0  0  0
 17 19  1  0  0  0  0
 17 20  1  0  0  0  0
M  END
> <VConfSearch Rank>
200

> <Conf_Id>
61

> <Delta U+W>
2.669

> <U+W>
-9.108

> <U>
48.916

> <W>
-58.025

> <W(PB)>
-59.935

> <W(SA)>
1.911

> <Valence>
3.785

> <Coulomb>
44.716

> <VdW>
0.415

> <VdW6>
-4.836

> <VdW12>
5.251

> <Bond>
0.175

> <Angle>
1.195

> <Pdih>
2.415

> <Idih>
0.000

> <Tether>
0.000

$$$$
VeraChem MOL file


 20 19  0  0  0  0  0  0  0  0999 V2000     
   20.0192   18.6410   24.6806 N   0  3  0  0  0  0  0  0  0  0  0  0
   19.4208   18.3030   25.4417 H   0  0  0  0  0  0  0  0  0  0  0  0
   20.8801   18.9904   25.1131 H   0  0  0  0  0  0  0  0  0  0  0  0
   19.5451   19.4441   24.2596 H   0  0  0  0  0  0  0  0  0  0  0  0
   20.3025   17.5523   23.6631 C   0  0  0  0  0  0  0  0  0  0  0  0
   19.3500   17.1780   23.2785 H   0  0  0  0  0  0  0  0  0  0  0  0
   20.7943   16.7362   24.1994 H   0  0  0  0  0  0  0  0  0  0  0  0
   21.2031   17.9956   22.4910 C   0  0  0  0  0  0  0  0  0  0  0  0
   22.0312   18.6124   22.8647 H   0  0  0  0  0  0  0  0  0  0  0  0
   21.6666   17.0947   22.0674 H   0  0  0  0  0  0  0  0  0  0  0  0
   20.4572   18.7283   21.3462 C   0  0  0  0  0  0  0  0  0  0  0  0
   19.6702   18.0748   20.9448 H   0  0  0  0  0  0  0  0  0  0  0  0
   21.1681   18.8902   20.5240 H   0  0  0  0  0  0  0  0  0  0  0  0
   19.8419   20.0889   21.7492 C   0  0  0  0  0  0  0  0  0  0  0  0
   19.0222   19.9346   22.4621 H   0  0  0  0  0  0  0  0  0  0  0  0
   20.5995   20.7082   22.2498 H   0  0  0  0  0  0  0  0  0  0  0  0
   19.2907   20.8488   20.5238 C   0  0  0  0  0  0  0  0  0  0  0  0
   18.8494   21.8069   20.8278 H   0  0  0  0  0  0  0  0  0  0  0  0
   20.0872   21.0610   19.7986 H   0  0  0  0  0  0  0  0  0  0  0  0
   18.5120   20.2657   20.0151 H   0  0  0  0  0  0  0  0  0  0  0  0
  1  2  1  0  0  0  0
  1  3  1  0  0  0  0
  1  4  1  0  0  0  0
  1  5  1  0  0  0  0
  5  6  1  0  0  0  0
  5  7  1  0  0  0  0
  5  8  1  0  0  0  0
  8  9  1  0  0  0  0
  8 10  1  0  0  0  0
  8 11  1  0  0  0  0
 11 12  1  0  0  0  0
 11 13  1  0  0  0  0
 11 14  1  0  0  0  0
 14 15  1  0  0  0  0
 14 16  1  0  0  0  0
 14 17  1  0  0  0  0
 17 18  1  0  0  0  0
 17 19  1  0  0  0  0
 17 20  1  0  0  0  0
M  END
> <VConfSearch Rank>
201

> <Conf_Id>
69

> <Delta U+W>
2.811

> <U+W>
-8.967

> <U>
49.216

> <W>
-58.183

> <W(PB)>
-60.064

> <W(SA)>
1.881

> <Valence>
2.929

> <Coulomb>
46.006

> <VdW>
0.281

> <VdW6>
-4.909

> <VdW12>
5.190

> <Bond>
0.156

> <Angle>
0.974

> <Pdih>
1.799

> <Idih>
0.000

> <Tether>
0.000

$$$$
VeraChem MOL file


 20 19  0  0  0  0  0  0  0  0999 V2000     
   19.3875   17.7197   20.7848 N   0  3  0  0  0  0  0  0  0  0  0  0
   19.8380   18.6090   20.5539 H   0  0  0  0  0  0  0  0  0  0  0  0
   20.0968   16.9866   20.6858 H   0  0  0  0  0  0  0  0  0  0  0  0
   18.6783   17.5455   20.0649 H   0  0  0  0  0  0  0  0  0  0  0  0
   18.7839   17.7341   22.1762 C   0  0  0  0  0  0  0  0  0  0  0  0
   18.3176   16.7572   22.3306 H   0  0  0  0  0  0  0  0  0  0  0  0
   17.9970   18.4925   22.2071 H   0  0  0  0  0  0  0  0  0  0  0  0
   19.8011   17.9879   23.3086 C   0  0  0  0  0  0  0  0  0  0  0  0
   19.3745   17.5848   24.2367 H   0  0  0  0  0  0  0  0  0  0  0  0
   20.7192   17.4140   23.1256 H   0  0  0  0  0  0  0  0  0  0  0  0
   20.1368   19.4821   23.5507 C   0  0  0  0  0  0  0  0  0  0  0  0
   20.7721   19.5489   24.4448 H   0  0  0  0  0  0  0  0  0  0  0  0
   19.2150   20.0303   23.7897 H   0  0  0  0  0  0  0  0  0  0  0  0
   20.8590   20.1764   22.3723 C   0  0  0  0  0  0  0  0  0  0  0  0
   21.7235   19.5752   22.0573 H   0  0  0  0  0  0  0  0  0  0  0  0
   20.1837   20.2550   21.5111 H   0  0  0  0  0  0  0  0  0  0  0  0
   21.3357   21.5942   22.7538 C   0  0  0  0  0  0  0  0  0  0  0  0
   22.0472   21.5611   23.5892 H   0  0  0  0  0  0  0  0  0  0  0  0
   21.8371   22.0764   21.9046 H   0  0  0  0  0  0  0  0  0  0  0  0
   20.4901   22.2286   23.0500 H   0  0  0  0  0  0  0  0  0  0  0  0
  1  2  1  0  0  0  0
  1  3  1  0  0  0  0
  1  4  1  0  0  0  0
  1  5  1  0  0  0  0
  5  6  1  0  0  0  0
  5  7  1  0  0  0  0
  5  8  1  0  0  0  0
  8  9  1  0  0  0  0
  8 10  1  0  0  0  0
  8 11  1  0  0  0  0
 11 12  1  0  0  0  0
 11 13  1  0  0  0  0
 11 14  1  0  0  0  0
 14 15  1  0  0  0  0
 14 16  1  0  0  0  0
 14 17  1  0  0  0  0
 17 18  1  0  0  0  0
 17 19  1  0  0  0  0
 17 20  1  0  0  0  0
M  END
> <VConfSearch Rank>
202

> <Conf_Id>
26

> <Delta U+W>
2.809

> <U+W>
-8.969

> <U>
49.216

> <W>
-58.185

> <W(PB)>
-60.088

> <W(SA)>
1.903

> <Valence>
2.929

> <Coulomb>
46.006

> <VdW>
0.281

> <VdW6>
-4.909

> <VdW12>
5.190

> <Bond>
0.156

> <Angle>
0.974

> <Pdih>
1.799

> <Idih>
0.000

> <Tether>
0.000

$$$$
VeraChem MOL file


 20 19  0  0  0  0  0  0  0  0999 V2000     
   21.0593   16.9639   22.7924 N   0  3  0  0  0  0  0  0  0  0  0  0
   21.2167   17.2137   21.8117 H   0  0  0  0  0  0  0  0  0  0  0  0
   21.9787   16.9043   23.2410 H   0  0  0  0  0  0  0  0  0  0  0  0
   20.6609   16.0192   22.8018 H   0  0  0  0  0  0  0  0  0  0  0  0
   20.1563   17.9637   23.4880 C   0  0  0  0  0  0  0  0  0  0  0  0
   20.0074   17.6196   24.5151 H   0  0  0  0  0  0  0  0  0  0  0  0
   19.1866   17.9544   22.9835 H   0  0  0  0  0  0  0  0  0  0  0  0
   20.7191   19.3994   23.5059 C   0  0  0  0  0  0  0  0  0  0  0  0
   20.0441   20.0367   24.0912 H   0  0  0  0  0  0  0  0  0  0  0  0
   21.6762   19.4033   24.0441 H   0  0  0  0  0  0  0  0  0  0  0  0
   20.9238   20.0140   22.0962 C   0  0  0  0  0  0  0  0  0  0  0  0
   21.7208   19.4681   21.5739 H   0  0  0  0  0  0  0  0  0  0  0  0
   21.2934   21.0425   22.2092 H   0  0  0  0  0  0  0  0  0  0  0  0
   19.6568   20.0287   21.2030 C   0  0  0  0  0  0  0  0  0  0  0  0
   19.9202   20.4620   20.2280 H   0  0  0  0  0  0  0  0  0  0  0  0
   19.3248   19.0022   20.9969 H   0  0  0  0  0  0  0  0  0  0  0  0
   18.4891   20.8400   21.8089 C   0  0  0  0  0  0  0  0  0  0  0  0
   18.8000   21.8671   22.0400 H   0  0  0  0  0  0  0  0  0  0  0  0
   17.6511   20.8942   21.1020 H   0  0  0  0  0  0  0  0  0  0  0  0
   18.1137   20.3786   22.7307 H   0  0  0  0  0  0  0  0  0  0  0  0
  1  2  1  0  0  0  0
  1  3  1  0  0  0  0
  1  4  1  0  0  0  0
  1  5  1  0  0  0  0
  5  6  1  0  0  0  0
  5  7  1  0  0  0  0
  5  8  1  0  0  0  0
  8  9  1  0  0  0  0
  8 10  1  0  0  0  0
  8 11  1  0  0  0  0
 11 12  1  0  0  0  0
 11 13  1  0  0  0  0
 11 14  1  0  0  0  0
 14 15  1  0  0  0  0
 14 16  1  0  0  0  0
 14 17  1  0  0  0  0
 17 18  1  0  0  0  0
 17 19  1  0  0  0  0
 17 20  1  0  0  0  0
M  END
> <VConfSearch Rank>
203

> <Conf_Id>
2

> <Delta U+W>
0.994

> <U+W>
-10.784

> <U>
47.562

> <W>
-58.346

> <W(PB)>
-60.221

> <W(SA)>
1.875

> <Valence>
2.149

> <Coulomb>
45.034

> <VdW>
0.378

> <VdW6>
-5.599

> <VdW12>
5.977

> <Bond>
0.185

> <Angle>
0.935

> <Pdih>
1.028

> <Idih>
0.000

> <Tether>
0.000

$$$$
VeraChem MOL file


 20 19  0  0  0  0  0  0  0  0999 V2000     
   18.2754   17.7300   21.8099 N   0  3  0  0  0  0  0  0  0  0  0  0
   17.4759   17.7034   22.4504 H   0  0  0  0  0  0  0  0  0  0  0  0
   18.2142   18.6077   21.2857 H   0  0  0  0  0  0  0  0  0  0  0  0
   18.1438   16.9679   21.1367 H   0  0  0  0  0  0  0  0  0  0  0  0
   19.5939   17.6083   22.5486 C   0  0  0  0  0  0  0  0  0  0  0  0
   20.3991   17.6100   21.8094 H   0  0  0  0  0  0  0  0  0  0  0  0
   19.6026   16.6405   23.0572 H   0  0  0  0  0  0  0  0  0  0  0  0
   19.8324   18.7303   23.5795 C   0  0  0  0  0  0  0  0  0  0  0  0
   19.0371   18.6981   24.3359 H   0  0  0  0  0  0  0  0  0  0  0  0
   20.7660   18.5233   24.1180 H   0  0  0  0  0  0  0  0  0  0  0  0
   19.8918   20.1521   22.9616 C   0  0  0  0  0  0  0  0  0  0  0  0
   20.0970   20.8768   23.7615 H   0  0  0  0  0  0  0  0  0  0  0  0
   18.9022   20.4185   22.5668 H   0  0  0  0  0  0  0  0  0  0  0  0
   20.9449   20.3293   21.8379 C   0  0  0  0  0  0  0  0  0  0  0  0
   20.7033   19.6815   20.9844 H   0  0  0  0  0  0  0  0  0  0  0  0
   20.8852   21.3599   21.4607 H   0  0  0  0  0  0  0  0  0  0  0  0
   22.3922   20.0536   22.3052 C   0  0  0  0  0  0  0  0  0  0  0  0
   22.5315   19.0021   22.5854 H   0  0  0  0  0  0  0  0  0  0  0  0
   23.1051   20.2781   21.5013 H   0  0  0  0  0  0  0  0  0  0  0  0
   22.6537   20.6777   23.1695 H   0  0  0  0  0  0  0  0  0  0  0  0
  1  2  1  0  0  0  0
  1  3  1  0  0  0  0
  1  4  1  0  0  0  0
  1  5  1  0  0  0  0
  5  6  1  0  0  0  0
  5  7  1  0  0  0  0
  5  8  1  0  0  0  0
  8  9  1  0  0  0  0
  8 10  1  0  0  0  0
  8 11  1  0  0  0  0
 11 12  1  0  0  0  0
 11 13  1  0  0  0  0
 11 14  1  0  0  0  0
 14 15  1  0  0  0  0
 14 16  1  0  0  0  0
 14 17  1  0  0  0  0
 17 18  1  0  0  0  0
 17 19  1  0  0  0  0
 17 20  1  0  0  0  0
M  END
> <VConfSearch Rank>
204

> <Conf_Id>
1

> <Delta U+W>
1.032

> <U+W>
-10.746

> <U>
47.562

> <W>
-58.308

> <W(PB)>
-60.184

> <W(SA)>
1.877

> <Valence>
2.149

> <Coulomb>
45.035

> <VdW>
0.378

> <VdW6>
-5.599

> <VdW12>
5.978

> <Bond>
0.185

> <Angle>
0.935

> <Pdih>
1.028

> <Idih>
0.000

> <Tether>
0.000

$$$$
VeraChem MOL file


 20 19  0  0  0  0  0  0  0  0999 V2000     
   19.4213   16.9614   22.1110 N   0  3  0  0  0  0  0  0  0  0  0  0
   19.6291   16.2287   22.7966 H   0  0  0  0  0  0  0  0  0  0  0  0
   18.6592   17.5277   22.4946 H   0  0  0  0  0  0  0  0  0  0  0  0
   19.0548   16.4928   21.2758 H   0  0  0  0  0  0  0  0  0  0  0  0
   20.6436   17.8014   21.7945 C   0  0  0  0  0  0  0  0  0  0  0  0
   20.3600   18.5367   21.0399 H   0  0  0  0  0  0  0  0  0  0  0  0
   21.3923   17.1382   21.3528 H   0  0  0  0  0  0  0  0  0  0  0  0
   21.2537   18.5034   23.0264 C   0  0  0  0  0  0  0  0  0  0  0  0
   21.5153   17.7321   23.7630 H   0  0  0  0  0  0  0  0  0  0  0  0
   22.2010   18.9799   22.7413 H   0  0  0  0  0  0  0  0  0  0  0  0
   20.3275   19.5499   23.7028 C   0  0  0  0  0  0  0  0  0  0  0  0
   20.6544   19.6640   24.7457 H   0  0  0  0  0  0  0  0  0  0  0  0
   19.2971   19.1762   23.7592 H   0  0  0  0  0  0  0  0  0  0  0  0
   20.3455   20.9586   23.0553 C   0  0  0  0  0  0  0  0  0  0  0  0
   19.7298   21.6286   23.6716 H   0  0  0  0  0  0  0  0  0  0  0  0
   21.3645   21.3687   23.0883 H   0  0  0  0  0  0  0  0  0  0  0  0
   19.8193   21.0061   21.6038 C   0  0  0  0  0  0  0  0  0  0  0  0
   18.8493   20.5004   21.5142 H   0  0  0  0  0  0  0  0  0  0  0  0
   19.6859   22.0464   21.2800 H   0  0  0  0  0  0  0  0  0  0  0  0
   20.5259   20.5397   20.9072 H   0  0  0  0  0  0  0  0  0  0  0  0
  1  2  1  0  0  0  0
  1  3  1  0  0  0  0
  1  4  1  0  0  0  0
  1  5  1  0  0  0  0
  5  6  1  0  0  0  0
  5  7  1  0  0  0  0
  5  8  1  0  0  0  0
  8  9  1  0  0  0  0
  8 10  1  0  0  0  0
  8 11  1  0  0  0  0
 11 12  1  0  0  0  0
 11 13  1  0  0  0  0
 11 14  1  0  0  0  0
 14 15  1  0  0  0  0
 14 16  1  0  0  0  0
 14 17  1  0  0  0  0
 17 18  1  0  0  0  0
 17 19  1  0  0  0  0
 17 20  1  0  0  0  0
M  END
> <VConfSearch Rank>
205

> <Conf_Id>
80

> <Delta U+W>
2.920

> <U+W>
-8.857

> <U>
49.434

> <W>
-58.292

> <W(PB)>
-60.170

> <W(SA)>
1.879

> <Valence>
3.798

> <Coulomb>
45.253

> <VdW>
0.384

> <VdW6>
-5.595

> <VdW12>
5.979

> <Bond>
0.198

> <Angle>
1.368

> <Pdih>
2.231

> <Idih>
0.000

> <Tether>
0.000

$$$$
VeraChem MOL file


 20 19  0  0  0  0  0  0  0  0999 V2000     
   19.7096   21.4498   22.8782 N   0  3  0  0  0  0  0  0  0  0  0  0
   18.7662   21.7036   23.1875 H   0  0  0  0  0  0  0  0  0  0  0  0
   20.3018   22.2748   23.0200 H   0  0  0  0  0  0  0  0  0  0  0  0
   19.6633   21.2851   21.8686 H   0  0  0  0  0  0  0  0  0  0  0  0
   20.2415   20.2404   23.6227 C   0  0  0  0  0  0  0  0  0  0  0  0
   20.3014   20.5068   24.6815 H   0  0  0  0  0  0  0  0  0  0  0  0
   21.2549   20.0462   23.2680 H   0  0  0  0  0  0  0  0  0  0  0  0
   19.3666   18.9782   23.4676 C   0  0  0  0  0  0  0  0  0  0  0  0
   19.7424   18.1911   24.1346 H   0  0  0  0  0  0  0  0  0  0  0  0
   18.3565   19.2180   23.8254 H   0  0  0  0  0  0  0  0  0  0  0  0
   19.2687   18.4295   22.0185 C   0  0  0  0  0  0  0  0  0  0  0  0
   19.1496   19.2511   21.3005 H   0  0  0  0  0  0  0  0  0  0  0  0
   18.3445   17.8399   21.9439 H   0  0  0  0  0  0  0  0  0  0  0  0
   20.4399   17.5114   21.5834 C   0  0  0  0  0  0  0  0  0  0  0  0
   20.4944   16.6391   22.2497 H   0  0  0  0  0  0  0  0  0  0  0  0
   20.2132   17.1146   20.5838 H   0  0  0  0  0  0  0  0  0  0  0  0
   21.8183   18.2067   21.5339 C   0  0  0  0  0  0  0  0  0  0  0  0
   22.1947   18.4198   22.5413 H   0  0  0  0  0  0  0  0  0  0  0  0
   22.5559   17.5578   21.0442 H   0  0  0  0  0  0  0  0  0  0  0  0
   21.7712   19.1464   20.9685 H   0  0  0  0  0  0  0  0  0  0  0  0
  1  2  1  0  0  0  0
  1  3  1  0  0  0  0
  1  4  1  0  0  0  0
  1  5  1  0  0  0  0
  5  6  1  0  0  0  0
  5  7  1  0  0  0  0
  5  8  1  0  0  0  0
  8  9  1  0  0  0  0
  8 10  1  0  0  0  0
  8 11  1  0  0  0  0
 11 12  1  0  0  0  0
 11 13  1  0  0  0  0
 11 14  1  0  0  0  0
 14 15  1  0  0  0  0
 14 16  1  0  0  0  0
 14 17  1  0  0  0  0
 17 18  1  0  0  0  0
 17 19  1  0  0  0  0
 17 20  1  0  0  0  0
M  END
> <VConfSearch Rank>
206

> <Conf_Id>
65

> <Delta U+W>
2.949

> <U+W>
-8.829

> <U>
49.435

> <W>
-58.263

> <W(PB)>
-60.125

> <W(SA)>
1.862

> <Valence>
3.797

> <Coulomb>
45.253

> <VdW>
0.384

> <VdW6>
-5.596

> <VdW12>
5.980

> <Bond>
0.198

> <Angle>
1.369

> <Pdih>
2.230

> <Idih>
0.000

> <Tether>
0.000

$$$$
VeraChem MOL file


 20 19  0  0  0  0  0  0  0  0999 V2000     
   18.8167   17.8862   21.8174 N   0  3  0  0  0  0  0  0  0  0  0  0
   17.8545   17.5993   22.0259 H   0  0  0  0  0  0  0  0  0  0  0  0
   18.7842   18.8615   21.5051 H   0  0  0  0  0  0  0  0  0  0  0  0
   19.1303   17.3215   21.0217 H   0  0  0  0  0  0  0  0  0  0  0  0
   19.7273   17.7202   23.0186 C   0  0  0  0  0  0  0  0  0  0  0  0
   19.7105   16.6607   23.2881 H   0  0  0  0  0  0  0  0  0  0  0  0
   19.3123   18.2895   23.8546 H   0  0  0  0  0  0  0  0  0  0  0  0
   21.1858   18.1516   22.7636 C   0  0  0  0  0  0  0  0  0  0  0  0
   21.8205   17.6281   23.4909 H   0  0  0  0  0  0  0  0  0  0  0  0
   21.5107   17.7986   21.7759 H   0  0  0  0  0  0  0  0  0  0  0  0
   21.4598   19.6731   22.9052 C   0  0  0  0  0  0  0  0  0  0  0  0
   22.5370   19.8281   22.7531 H   0  0  0  0  0  0  0  0  0  0  0  0
   21.2603   19.9951   23.9367 H   0  0  0  0  0  0  0  0  0  0  0  0
   20.6988   20.5829   21.9073 C   0  0  0  0  0  0  0  0  0  0  0  0
   21.3513   21.4239   21.6331 H   0  0  0  0  0  0  0  0  0  0  0  0
   20.5015   20.0450   20.9703 H   0  0  0  0  0  0  0  0  0  0  0  0
   19.3931   21.1698   22.4942 C   0  0  0  0  0  0  0  0  0  0  0  0
   18.7118   20.3941   22.8600 H   0  0  0  0  0  0  0  0  0  0  0  0
   19.6148   21.8367   23.3377 H   0  0  0  0  0  0  0  0  0  0  0  0
   18.8601   21.7604   21.7378 H   0  0  0  0  0  0  0  0  0  0  0  0
  1  2  1  0  0  0  0
  1  3  1  0  0  0  0
  1  4  1  0  0  0  0
  1  5  1  0  0  0  0
  5  6  1  0  0  0  0
  5  7  1  0  0  0  0
  5  8  1  0  0  0  0
  8  9  1  0  0  0  0
  8 10  1  0  0  0  0
  8 11  1  0  0  0  0
 11 12  1  0  0  0  0
 11 13  1  0  0  0  0
 11 14  1  0  0  0  0
 14 15  1  0  0  0  0
 14 16  1  0  0  0  0
 14 17  1  0  0  0  0
 17 18  1  0  0  0  0
 17 19  1  0  0  0  0
 17 20  1  0  0  0  0
M  END
> <VConfSearch Rank>
207

> <Conf_Id>
77

> <Delta U+W>
5.366

> <U+W>
-6.412

> <U>
51.542

> <W>
-57.954

> <W(PB)>
-59.811

> <W(SA)>
1.857

> <Valence>
5.347

> <Coulomb>
45.870

> <VdW>
0.325

> <VdW6>
-6.161

> <VdW12>
6.486

> <Bond>
0.201

> <Angle>
1.484

> <Pdih>
3.662

> <Idih>
0.000

> <Tether>
0.000

$$$$
VeraChem MOL file


 20 19  0  0  0  0  0  0  0  0999 V2000     
   21.3595   19.5741   20.9498 N   0  3  0  0  0  0  0  0  0  0  0  0
   22.3661   19.4736   21.1140 H   0  0  0  0  0  0  0  0  0  0  0  0
   20.9463   18.6383   21.0069 H   0  0  0  0  0  0  0  0  0  0  0  0
   21.2460   19.9006   19.9843 H   0  0  0  0  0  0  0  0  0  0  0  0
   20.7193   20.5229   21.9445 C   0  0  0  0  0  0  0  0  0  0  0  0
   19.6643   20.6442   21.6847 H   0  0  0  0  0  0  0  0  0  0  0  0
   21.2117   21.4917   21.8243 H   0  0  0  0  0  0  0  0  0  0  0  0
   20.8485   20.0714   23.4135 C   0  0  0  0  0  0  0  0  0  0  0  0
   21.8602   19.6855   23.5962 H   0  0  0  0  0  0  0  0  0  0  0  0
   20.7509   20.9635   24.0464 H   0  0  0  0  0  0  0  0  0  0  0  0
   19.7887   19.0392   23.8838 C   0  0  0  0  0  0  0  0  0  0  0  0
   18.7842   19.4809   23.8254 H   0  0  0  0  0  0  0  0  0  0  0  0
   19.9646   18.8518   24.9522 H   0  0  0  0  0  0  0  0  0  0  0  0
   19.8138   17.6757   23.1472 C   0  0  0  0  0  0  0  0  0  0  0  0
   20.8291   17.4469   22.7964 H   0  0  0  0  0  0  0  0  0  0  0  0
   19.5653   16.8839   23.8681 H   0  0  0  0  0  0  0  0  0  0  0  0
   18.7951   17.5936   21.9856 C   0  0  0  0  0  0  0  0  0  0  0  0
   18.8856   16.6349   21.4585 H   0  0  0  0  0  0  0  0  0  0  0  0
   17.7681   17.6646   22.3673 H   0  0  0  0  0  0  0  0  0  0  0  0
   18.9286   18.3967   21.2530 H   0  0  0  0  0  0  0  0  0  0  0  0
  1  2  1  0  0  0  0
  1  3  1  0  0  0  0
  1  4  1  0  0  0  0
  1  5  1  0  0  0  0
  5  6  1  0  0  0  0
  5  7  1  0  0  0  0
  5  8  1  0  0  0  0
  8  9  1  0  0  0  0
  8 10  1  0  0  0  0
  8 11  1  0  0  0  0
 11 12  1  0  0  0  0
 11 13  1  0  0  0  0
 11 14  1  0  0  0  0
 14 15  1  0  0  0  0
 14 16  1  0  0  0  0
 14 17  1  0  0  0  0
 17 18  1  0  0  0  0
 17 19  1  0  0  0  0
 17 20  1  0  0  0  0
M  END
> <VConfSearch Rank>
208

> <Conf_Id>
67

> <Delta U+W>
5.353

> <U+W>
-6.425

> <U>
51.541

> <W>
-57.966

> <W(PB)>
-59.821

> <W(SA)>
1.855

> <Valence>
5.347

> <Coulomb>
45.870

> <VdW>
0.325

> <VdW6>
-6.161

> <VdW12>
6.486

> <Bond>
0.201

> <Angle>
1.485

> <Pdih>
3.662

> <Idih>
0.000

> <Tether>
0.000

$$$$
VeraChem MOL file


 20 19  0  0  0  0  0  0  0  0999 V2000     
   17.2906   19.9481   21.2460 N   0  3  0  0  0  0  0  0  0  0  0  0
   17.2414   19.2385   20.5082 H   0  0  0  0  0  0  0  0  0  0  0  0
   16.3349   20.0835   21.5923 H   0  0  0  0  0  0  0  0  0  0  0  0
   17.5723   20.8270   20.8004 H   0  0  0  0  0  0  0  0  0  0  0  0
   18.2402   19.5460   22.3565 C   0  0  0  0  0  0  0  0  0  0  0  0
   17.8639   18.6223   22.8044 H   0  0  0  0  0  0  0  0  0  0  0  0
   18.2198   20.3300   23.1184 H   0  0  0  0  0  0  0  0  0  0  0  0
   19.6851   19.3344   21.8698 C   0  0  0  0  0  0  0  0  0  0  0  0
   19.6986   18.5577   21.0936 H   0  0  0  0  0  0  0  0  0  0  0  0
   20.0533   20.2595   21.4065 H   0  0  0  0  0  0  0  0  0  0  0  0
   20.6192   18.9263   23.0307 C   0  0  0  0  0  0  0  0  0  0  0  0
   20.2450   18.0033   23.4953 H   0  0  0  0  0  0  0  0  0  0  0  0
   20.5993   19.7032   23.8078 H   0  0  0  0  0  0  0  0  0  0  0  0
   22.0731   18.7110   22.5537 C   0  0  0  0  0  0  0  0  0  0  0  0
   22.0979   17.9330   21.7776 H   0  0  0  0  0  0  0  0  0  0  0  0
   22.4522   19.6326   22.0901 H   0  0  0  0  0  0  0  0  0  0  0  0
   23.0026   18.3033   23.7167 C   0  0  0  0  0  0  0  0  0  0  0  0
   22.6688   17.3653   24.1791 H   0  0  0  0  0  0  0  0  0  0  0  0
   24.0297   18.1550   23.3585 H   0  0  0  0  0  0  0  0  0  0  0  0
   23.0259   19.0782   24.4940 H   0  0  0  0  0  0  0  0  0  0  0  0
  1  2  1  0  0  0  0
  1  3  1  0  0  0  0
  1  4  1  0  0  0  0
  1  5  1  0  0  0  0
  5  6  1  0  0  0  0
  5  7  1  0  0  0  0
  5  8  1  0  0  0  0
  8  9  1  0  0  0  0
  8 10  1  0  0  0  0
  8 11  1  0  0  0  0
 11 12  1  0  0  0  0
 11 13  1  0  0  0  0
 11 14  1  0  0  0  0
 14 15  1  0  0  0  0
 14 16  1  0  0  0  0
 14 17  1  0  0  0  0
 17 18  1  0  0  0  0
 17 19  1  0  0  0  0
 17 20  1  0  0  0  0
M  END
> <VConfSearch Rank>
209

> <Conf_Id>
72

> <Delta U+W>
0.000

> <U+W>
-11.778

> <U>
45.772

> <W>
-57.550

> <W(PB)>
-59.511

> <W(SA)>
1.961

> <Valence>
1.299

> <Coulomb>
44.177

> <VdW>
0.297

> <VdW6>
-3.490

> <VdW12>
3.786

> <Bond>
0.096

> <Angle>
0.381

> <Pdih>
0.822

> <Idih>
0.000

> <Tether>
0.000

$$$$
VeraChem MOL file


 20 19  0  0  0  0  0  0  0  0999 V2000     
   20.3115   19.5923   25.4503 N   0  3  0  0  0  0  0  0  0  0  0  0
   21.1948   19.0737   25.4841 H   0  0  0  0  0  0  0  0  0  0  0  0
   20.5480   20.5894   25.4322 H   0  0  0  0  0  0  0  0  0  0  0  0
   19.8300   19.4173   26.3386 H   0  0  0  0  0  0  0  0  0  0  0  0
   19.4629   19.1896   24.2611 C   0  0  0  0  0  0  0  0  0  0  0  0
   18.5290   19.7564   24.3057 H   0  0  0  0  0  0  0  0  0  0  0  0
   19.2246   18.1271   24.3607 H   0  0  0  0  0  0  0  0  0  0  0  0
   20.1566   19.4400   22.9100 C   0  0  0  0  0  0  0  0  0  0  0  0
   20.4084   20.5051   22.8211 H   0  0  0  0  0  0  0  0  0  0  0  0
   21.1004   18.8809   22.8835 H   0  0  0  0  0  0  0  0  0  0  0  0
   19.2549   19.0173   21.7263 C   0  0  0  0  0  0  0  0  0  0  0  0
   18.2867   19.5301   21.8132 H   0  0  0  0  0  0  0  0  0  0  0  0
   19.0408   17.9414   21.7898 H   0  0  0  0  0  0  0  0  0  0  0  0
   19.8619   19.3434   20.3399 C   0  0  0  0  0  0  0  0  0  0  0  0
   19.1181   19.1093   19.5654 H   0  0  0  0  0  0  0  0  0  0  0  0
   20.0555   20.4225   20.2632 H   0  0  0  0  0  0  0  0  0  0  0  0
   21.1595   18.5597   20.0372 C   0  0  0  0  0  0  0  0  0  0  0  0
   20.9999   17.4781   20.1348 H   0  0  0  0  0  0  0  0  0  0  0  0
   21.4971   18.7574   19.0116 H   0  0  0  0  0  0  0  0  0  0  0  0
   21.9734   18.8500   20.7131 H   0  0  0  0  0  0  0  0  0  0  0  0
  1  2  1  0  0  0  0
  1  3  1  0  0  0  0
  1  4  1  0  0  0  0
  1  5  1  0  0  0  0
  5  6  1  0  0  0  0
  5  7  1  0  0  0  0
  5  8  1  0  0  0  0
  8  9  1  0  0  0  0
  8 10  1  0  0  0  0
  8 11  1  0  0  0  0
 11 12  1  0  0  0  0
 11 13  1  0  0  0  0
 11 14  1  0  0  0  0
 14 15  1  0  0  0  0
 14 16  1  0  0  0  0
 14 17  1  0  0  0  0
 17 18  1  0  0  0  0
 17 19  1  0  0  0  0
 17 20  1  0  0  0  0
M  END
> <VConfSearch Rank>
210

> <Conf_Id>
42

> <Delta U+W>
0.508

> <U+W>
-11.270

> <U>
46.486

> <W>
-57.756

> <W(PB)>
-59.705

> <W(SA)>
1.949

> <Valence>
1.806

> <Coulomb>
44.248

> <VdW>
0.433

> <VdW6>
-4.089

> <VdW12>
4.522

> <Bond>
0.131

> <Angle>
0.628

> <Pdih>
1.047

> <Idih>
0.000

> <Tether>
0.000

$$$$
VeraChem MOL file


 20 19  0  0  0  0  0  0  0  0999 V2000     
   17.2955   18.1441   22.5205 N   0  3  0  0  0  0  0  0  0  0  0  0
   16.8585   19.0616   22.3879 H   0  0  0  0  0  0  0  0  0  0  0  0
   17.3932   17.7200   21.5927 H   0  0  0  0  0  0  0  0  0  0  0  0
   16.6255   17.5684   23.0414 H   0  0  0  0  0  0  0  0  0  0  0  0
   18.6258   18.2486   23.2388 C   0  0  0  0  0  0  0  0  0  0  0  0
   19.0179   17.2367   23.3721 H   0  0  0  0  0  0  0  0  0  0  0  0
   18.4426   18.6786   24.2273 H   0  0  0  0  0  0  0  0  0  0  0  0
   19.6557   19.1076   22.4833 C   0  0  0  0  0  0  0  0  0  0  0  0
   19.8183   18.6773   21.4871 H   0  0  0  0  0  0  0  0  0  0  0  0
   19.2514   20.1181   22.3378 H   0  0  0  0  0  0  0  0  0  0  0  0
   20.9954   19.1884   23.2527 C   0  0  0  0  0  0  0  0  0  0  0  0
   21.4231   18.1817   23.3580 H   0  0  0  0  0  0  0  0  0  0  0  0
   20.8011   19.5492   24.2724 H   0  0  0  0  0  0  0  0  0  0  0  0
   22.0338   20.1250   22.5885 C   0  0  0  0  0  0  0  0  0  0  0  0
   21.6189   21.1391   22.5028 H   0  0  0  0  0  0  0  0  0  0  0  0
   22.9086   20.2063   23.2488 H   0  0  0  0  0  0  0  0  0  0  0  0
   22.5026   19.6362   21.1989 C   0  0  0  0  0  0  0  0  0  0  0  0
   21.6847   19.6529   20.4681 H   0  0  0  0  0  0  0  0  0  0  0  0
   23.3015   20.2829   20.8137 H   0  0  0  0  0  0  0  0  0  0  0  0
   22.8962   18.6128   21.2521 H   0  0  0  0  0  0  0  0  0  0  0  0
  1  2  1  0  0  0  0
  1  3  1  0  0  0  0
  1  4  1  0  0  0  0
  1  5  1  0  0  0  0
  5  6  1  0  0  0  0
  5  7  1  0  0  0  0
  5  8  1  0  0  0  0
  8  9  1  0  0  0  0
  8 10  1  0  0  0  0
  8 11  1  0  0  0  0
 11 12  1  0  0  0  0
 11 13  1  0  0  0  0
 11 14  1  0  0  0  0
 14 15  1  0  0  0  0
 14 16  1  0  0  0  0
 14 17  1  0  0  0  0
 17 18  1  0  0  0  0
 17 19  1  0  0  0  0
 17 20  1  0  0  0  0
M  END
> <VConfSearch Rank>
211

> <Conf_Id>
41

> <Delta U+W>
0.515

> <U+W>
-11.263

> <U>
46.486

> <W>
-57.749

> <W(PB)>
-59.685

> <W(SA)>
1.936

> <Valence>
1.806

> <Coulomb>
44.248

> <VdW>
0.433

> <VdW6>
-4.089

> <VdW12>
4.522

> <Bond>
0.131

> <Angle>
0.628

> <Pdih>
1.047

> <Idih>
0.000

> <Tether>
0.000

$$$$
VeraChem MOL file


 20 19  0  0  0  0  0  0  0  0999 V2000     
   20.8670   17.9197   20.0809 N   0  3  0  0  0  0  0  0  0  0  0  0
   21.1049   17.9606   19.0843 H   0  0  0  0  0  0  0  0  0  0  0  0
   21.7503   17.9358   20.5991 H   0  0  0  0  0  0  0  0  0  0  0  0
   20.4352   17.0052   20.2467 H   0  0  0  0  0  0  0  0  0  0  0  0
   19.9519   19.0586   20.4880 C   0  0  0  0  0  0  0  0  0  0  0  0
   19.0553   19.0008   19.8649 H   0  0  0  0  0  0  0  0  0  0  0  0
   20.4608   20.0002   20.2645 H   0  0  0  0  0  0  0  0  0  0  0  0
   19.5423   19.0304   21.9737 C   0  0  0  0  0  0  0  0  0  0  0  0
   18.7950   19.8176   22.1336 H   0  0  0  0  0  0  0  0  0  0  0  0
   19.0472   18.0767   22.1992 H   0  0  0  0  0  0  0  0  0  0  0  0
   20.7426   19.2457   22.9297 C   0  0  0  0  0  0  0  0  0  0  0  0
   21.2189   20.2120   22.7134 H   0  0  0  0  0  0  0  0  0  0  0  0
   21.5034   18.4770   22.7401 H   0  0  0  0  0  0  0  0  0  0  0  0
   20.3564   19.1839   24.4277 C   0  0  0  0  0  0  0  0  0  0  0  0
   19.8918   18.2136   24.6523 H   0  0  0  0  0  0  0  0  0  0  0  0
   21.2745   19.2309   25.0301 H   0  0  0  0  0  0  0  0  0  0  0  0
   19.4137   20.3267   24.8693 C   0  0  0  0  0  0  0  0  0  0  0  0
   18.4319   20.2505   24.3861 H   0  0  0  0  0  0  0  0  0  0  0  0
   19.2497   20.2914   25.9542 H   0  0  0  0  0  0  0  0  0  0  0  0
   19.8417   21.3081   24.6271 H   0  0  0  0  0  0  0  0  0  0  0  0
  1  2  1  0  0  0  0
  1  3  1  0  0  0  0
  1  4  1  0  0  0  0
  1  5  1  0  0  0  0
  5  6  1  0  0  0  0
  5  7  1  0  0  0  0
  5  8  1  0  0  0  0
  8  9  1  0  0  0  0
  8 10  1  0  0  0  0
  8 11  1  0  0  0  0
 11 12  1  0  0  0  0
 11 13  1  0  0  0  0
 11 14  1  0  0  0  0
 14 15  1  0  0  0  0
 14 16  1  0  0  0  0
 14 17  1  0  0  0  0
 17 18  1  0  0  0  0
 17 19  1  0  0  0  0
 17 20  1  0  0  0  0
M  END
> <VConfSearch Rank>
212

> <Conf_Id>
33

> <Delta U+W>
0.703

> <U+W>
-11.075

> <U>
47.080

> <W>
-58.154

> <W(PB)>
-60.053

> <W(SA)>
1.899

> <Valence>
1.943

> <Coulomb>
44.572

> <VdW>
0.565

> <VdW6>
-4.575

> <VdW12>
5.139

> <Bond>
0.158

> <Angle>
0.700

> <Pdih>
1.085

> <Idih>
0.000

> <Tether>
0.000

$$$$
VeraChem MOL file


 20 19  0  0  0  0  0  0  0  0999 V2000     
   22.1683   20.7117   23.4894 N   0  3  0  0  0  0  0  0  0  0  0  0
   22.8801   21.4430   23.3898 H   0  0  0  0  0  0  0  0  0  0  0  0
   21.8528   20.7342   24.4642 H   0  0  0  0  0  0  0  0  0  0  0  0
   22.6405   19.8145   23.3447 H   0  0  0  0  0  0  0  0  0  0  0  0
   21.0194   20.9089   22.5192 C   0  0  0  0  0  0  0  0  0  0  0  0
   21.4257   20.8977   21.5042 H   0  0  0  0  0  0  0  0  0  0  0  0
   20.5965   21.8999   22.7049 H   0  0  0  0  0  0  0  0  0  0  0  0
   19.9071   19.8491   22.6442 C   0  0  0  0  0  0  0  0  0  0  0  0
   19.5131   19.8506   23.6691 H   0  0  0  0  0  0  0  0  0  0  0  0
   19.0795   20.1482   21.9891 H   0  0  0  0  0  0  0  0  0  0  0  0
   20.3897   18.4270   22.2621 C   0  0  0  0  0  0  0  0  0  0  0  0
   21.2413   18.1473   22.8963 H   0  0  0  0  0  0  0  0  0  0  0  0
   20.7616   18.4281   21.2281 H   0  0  0  0  0  0  0  0  0  0  0  0
   19.2957   17.3425   22.4166 C   0  0  0  0  0  0  0  0  0  0  0  0
   19.7490   16.3573   22.2378 H   0  0  0  0  0  0  0  0  0  0  0  0
   18.9300   17.3280   23.4529 H   0  0  0  0  0  0  0  0  0  0  0  0
   18.1053   17.5247   21.4474 C   0  0  0  0  0  0  0  0  0  0  0  0
   18.4478   17.5739   20.4056 H   0  0  0  0  0  0  0  0  0  0  0  0
   17.4091   16.6802   21.5315 H   0  0  0  0  0  0  0  0  0  0  0  0
   17.5408   18.4390   21.6678 H   0  0  0  0  0  0  0  0  0  0  0  0
  1  2  1  0  0  0  0
  1  3  1  0  0  0  0
  1  4  1  0  0  0  0
  1  5  1  0  0  0  0
  5  6  1  0  0  0  0
  5  7  1  0  0  0  0
  5  8  1  0  0  0  0
  8  9  1  0  0  0  0
  8 10  1  0  0  0  0
  8 11  1  0  0  0  0
 11 12  1  0  0  0  0
 11 13  1  0  0  0  0
 11 14  1  0  0  0  0
 14 15  1  0  0  0  0
 14 16  1  0  0  0  0
 14 17  1  0  0  0  0
 17 18  1  0  0  0  0
 17 19  1  0  0  0  0
 17 20  1  0  0  0  0
M  END
> <VConfSearch Rank>
213

> <Conf_Id>
24

> <Delta U+W>
0.847

> <U+W>
-10.931

> <U>
47.080

> <W>
-58.011

> <W(PB)>
-59.914

> <W(SA)>
1.903

> <Valence>
1.943

> <Coulomb>
44.572

> <VdW>
0.565

> <VdW6>
-4.575

> <VdW12>
5.140

> <Bond>
0.158

> <Angle>
0.700

> <Pdih>
1.085

> <Idih>
0.000

> <Tether>
0.000

$$$$
VeraChem MOL file


 20 19  0  0  0  0  0  0  0  0999 V2000     
   19.3665   21.8440   22.5571 N   0  3  0  0  0  0  0  0  0  0  0  0
   18.7465   22.2912   23.2406 H   0  0  0  0  0  0  0  0  0  0  0  0
   20.3207   22.1434   22.7808 H   0  0  0  0  0  0  0  0  0  0  0  0
   19.1334   22.2401   21.6411 H   0  0  0  0  0  0  0  0  0  0  0  0
   19.2276   20.3351   22.5734 C   0  0  0  0  0  0  0  0  0  0  0  0
   18.1845   20.0893   22.3569 H   0  0  0  0  0  0  0  0  0  0  0  0
   19.4605   19.9873   23.5833 H   0  0  0  0  0  0  0  0  0  0  0  0
   20.1471   19.6316   21.5574 C   0  0  0  0  0  0  0  0  0  0  0  0
   19.9335   20.0183   20.5521 H   0  0  0  0  0  0  0  0  0  0  0  0
   21.1939   19.8850   21.7683 H   0  0  0  0  0  0  0  0  0  0  0  0
   19.9655   18.0931   21.5496 C   0  0  0  0  0  0  0  0  0  0  0  0
   20.6391   17.6588   20.7980 H   0  0  0  0  0  0  0  0  0  0  0  0
   18.9462   17.8561   21.2144 H   0  0  0  0  0  0  0  0  0  0  0  0
   20.2153   17.4012   22.9142 C   0  0  0  0  0  0  0  0  0  0  0  0
   19.4806   17.7458   23.6546 H   0  0  0  0  0  0  0  0  0  0  0  0
   20.0411   16.3224   22.7969 H   0  0  0  0  0  0  0  0  0  0  0  0
   21.6448   17.6180   23.4606 C   0  0  0  0  0  0  0  0  0  0  0  0
   21.7987   17.0339   24.3771 H   0  0  0  0  0  0  0  0  0  0  0  0
   22.3994   17.3001   22.7295 H   0  0  0  0  0  0  0  0  0  0  0  0
   21.8264   18.6716   23.7069 H   0  0  0  0  0  0  0  0  0  0  0  0
  1  2  1  0  0  0  0
  1  3  1  0  0  0  0
  1  4  1  0  0  0  0
  1  5  1  0  0  0  0
  5  6  1  0  0  0  0
  5  7  1  0  0  0  0
  5  8  1  0  0  0  0
  8  9  1  0  0  0  0
  8 10  1  0  0  0  0
  8 11  1  0  0  0  0
 11 12  1  0  0  0  0
 11 13  1  0  0  0  0
 11 14  1  0  0  0  0
 14 15  1  0  0  0  0
 14 16  1  0  0  0  0
 14 17  1  0  0  0  0
 17 18  1  0  0  0  0
 17 19  1  0  0  0  0
 17 20  1  0  0  0  0
M  END
> <VConfSearch Rank>
214

> <Conf_Id>
64

> <Delta U+W>
0.707

> <U+W>
-11.070

> <U>
47.077

> <W>
-58.148

> <W(PB)>
-60.054

> <W(SA)>
1.906

> <Valence>
2.039

> <Coulomb>
44.655

> <VdW>
0.383

> <VdW6>
-4.912

> <VdW12>
5.295

> <Bond>
0.159

> <Angle>
0.856

> <Pdih>
1.024

> <Idih>
0.000

> <Tether>
0.000

$$$$
VeraChem MOL file


 20 19  0  0  0  0  0  0  0  0999 V2000     
   18.3601   19.5067   24.4792 N   0  3  0  0  0  0  0  0  0  0  0  0
   17.8536   20.3939   24.3965 H   0  0  0  0  0  0  0  0  0  0  0  0
   17.7460   18.7738   24.1104 H   0  0  0  0  0  0  0  0  0  0  0  0
   18.4748   19.3224   25.4813 H   0  0  0  0  0  0  0  0  0  0  0  0
   19.6921   19.5459   23.7577 C   0  0  0  0  0  0  0  0  0  0  0  0
   20.1868   18.5836   23.9134 H   0  0  0  0  0  0  0  0  0  0  0  0
   20.3037   20.3259   24.2192 H   0  0  0  0  0  0  0  0  0  0  0  0
   19.5550   19.8207   22.2483 C   0  0  0  0  0  0  0  0  0  0  0  0
   18.9336   19.0433   21.7856 H   0  0  0  0  0  0  0  0  0  0  0  0
   19.0203   20.7687   22.1031 H   0  0  0  0  0  0  0  0  0  0  0  0
   20.9237   19.9038   21.5273 C   0  0  0  0  0  0  0  0  0  0  0  0
   21.4809   20.7663   21.9185 H   0  0  0  0  0  0  0  0  0  0  0  0
   20.7531   20.1124   20.4621 H   0  0  0  0  0  0  0  0  0  0  0  0
   21.8075   18.6371   21.6605 C   0  0  0  0  0  0  0  0  0  0  0  0
   22.7542   18.8134   21.1309 H   0  0  0  0  0  0  0  0  0  0  0  0
   22.0776   18.4715   22.7123 H   0  0  0  0  0  0  0  0  0  0  0  0
   21.1462   17.3633   21.0869 C   0  0  0  0  0  0  0  0  0  0  0  0
   20.8476   17.5101   20.0408 H   0  0  0  0  0  0  0  0  0  0  0  0
   21.8460   16.5183   21.1206 H   0  0  0  0  0  0  0  0  0  0  0  0
   20.2566   17.0774   21.6619 H   0  0  0  0  0  0  0  0  0  0  0  0
  1  2  1  0  0  0  0
  1  3  1  0  0  0  0
  1  4  1  0  0  0  0
  1  5  1  0  0  0  0
  5  6  1  0  0  0  0
  5  7  1  0  0  0  0
  5  8  1  0  0  0  0
  8  9  1  0  0  0  0
  8 10  1  0  0  0  0
  8 11  1  0  0  0  0
 11 12  1  0  0  0  0
 11 13  1  0  0  0  0
 11 14  1  0  0  0  0
 14 15  1  0  0  0  0
 14 16  1  0  0  0  0
 14 17  1  0  0  0  0
 17 18  1  0  0  0  0
 17 19  1  0  0  0  0
 17 20  1  0  0  0  0
M  END
> <VConfSearch Rank>
215

> <Conf_Id>
22

> <Delta U+W>
0.731

> <U+W>
-11.047

> <U>
47.078

> <W>
-58.125

> <W(PB)>
-60.031

> <W(SA)>
1.906

> <Valence>
2.039

> <Coulomb>
44.655

> <VdW>
0.383

> <VdW6>
-4.913

> <VdW12>
5.296

> <Bond>
0.159

> <Angle>
0.856

> <Pdih>
1.024

> <Idih>
0.000

> <Tether>
0.000

$$$$
VeraChem MOL file


 20 19  0  0  0  0  0  0  0  0999 V2000     
   18.5398   17.0020   22.7115 N   0  3  0  0  0  0  0  0  0  0  0  0
   18.2452   17.0507   23.6919 H   0  0  0  0  0  0  0  0  0  0  0  0
   17.6931   17.0749   22.1388 H   0  0  0  0  0  0  0  0  0  0  0  0
   18.9197   16.0614   22.5616 H   0  0  0  0  0  0  0  0  0  0  0  0
   19.5497   18.0788   22.3693 C   0  0  0  0  0  0  0  0  0  0  0  0
   19.8390   17.9511   21.3227 H   0  0  0  0  0  0  0  0  0  0  0  0
   20.4303   17.9185   22.9955 H   0  0  0  0  0  0  0  0  0  0  0  0
   19.0114   19.5038   22.5893 C   0  0  0  0  0  0  0  0  0  0  0  0
   18.0618   19.6098   22.0480 H   0  0  0  0  0  0  0  0  0  0  0  0
   18.7794   19.6467   23.6530 H   0  0  0  0  0  0  0  0  0  0  0  0
   19.9751   20.6200   22.1124 C   0  0  0  0  0  0  0  0  0  0  0  0
   19.4533   21.5796   22.2327 H   0  0  0  0  0  0  0  0  0  0  0  0
   20.1672   20.5200   21.0352 H   0  0  0  0  0  0  0  0  0  0  0  0
   21.3145   20.7025   22.8897 C   0  0  0  0  0  0  0  0  0  0  0  0
   21.6673   21.7430   22.8590 H   0  0  0  0  0  0  0  0  0  0  0  0
   21.1541   20.4700   23.9518 H   0  0  0  0  0  0  0  0  0  0  0  0
   22.4335   19.8070   22.3076 C   0  0  0  0  0  0  0  0  0  0  0  0
   22.1960   18.7410   22.3859 H   0  0  0  0  0  0  0  0  0  0  0  0
   22.6134   20.0392   21.2499 H   0  0  0  0  0  0  0  0  0  0  0  0
   23.3745   19.9727   22.8480 H   0  0  0  0  0  0  0  0  0  0  0  0
  1  2  1  0  0  0  0
  1  3  1  0  0  0  0
  1  4  1  0  0  0  0
  1  5  1  0  0  0  0
  5  6  1  0  0  0  0
  5  7  1  0  0  0  0
  5  8  1  0  0  0  0
  8  9  1  0  0  0  0
  8 10  1  0  0  0  0
  8 11  1  0  0  0  0
 11 12  1  0  0  0  0
 11 13  1  0  0  0  0
 11 14  1  0  0  0  0
 14 15  1  0  0  0  0
 14 16  1  0  0  0  0
 14 17  1  0  0  0  0
 17 18  1  0  0  0  0
 17 19  1  0  0  0  0
 17 20  1  0  0  0  0
M  END
> <VConfSearch Rank>
216

> <Conf_Id>
61

> <Delta U+W>
2.669

> <U+W>
-9.108

> <U>
48.916

> <W>
-58.025

> <W(PB)>
-59.935

> <W(SA)>
1.911

> <Valence>
3.785

> <Coulomb>
44.716

> <VdW>
0.415

> <VdW6>
-4.836

> <VdW12>
5.251

> <Bond>
0.175

> <Angle>
1.195

> <Pdih>
2.415

> <Idih>
0.000

> <Tether>
0.000

$$$$
VeraChem MOL file


 20 19  0  0  0  0  0  0  0  0999 V2000     
   18.3992   17.7364   23.1543 N   0  3  0  0  0  0  0  0  0  0  0  0
   17.3797   17.6266   23.1676 H   0  0  0  0  0  0  0  0  0  0  0  0
   18.7843   17.0030   23.7577 H   0  0  0  0  0  0  0  0  0  0  0  0
   18.6106   18.6341   23.5975 H   0  0  0  0  0  0  0  0  0  0  0  0
   18.9545   17.6548   21.7452 C   0  0  0  0  0  0  0  0  0  0  0  0
   18.4682   18.4197   21.1339 H   0  0  0  0  0  0  0  0  0  0  0  0
   18.6726   16.6757   21.3485 H   0  0  0  0  0  0  0  0  0  0  0  0
   20.4874   17.8088   21.6555 C   0  0  0  0  0  0  0  0  0  0  0  0
   20.9709   17.2374   22.4590 H   0  0  0  0  0  0  0  0  0  0  0  0
   20.8150   17.3431   20.7165 H   0  0  0  0  0  0  0  0  0  0  0  0
   20.9893   19.2757   21.6579 C   0  0  0  0  0  0  0  0  0  0  0  0
   20.5411   19.8174   20.8134 H   0  0  0  0  0  0  0  0  0  0  0  0
   22.0727   19.2664   21.4739 H   0  0  0  0  0  0  0  0  0  0  0  0
   20.7125   20.0462   22.9701 C   0  0  0  0  0  0  0  0  0  0  0  0
   19.6333   20.1987   23.0962 H   0  0  0  0  0  0  0  0  0  0  0  0
   21.0632   19.4583   23.8299 H   0  0  0  0  0  0  0  0  0  0  0  0
   21.4075   21.4246   22.9773 C   0  0  0  0  0  0  0  0  0  0  0  0
   21.1934   21.9621   23.9102 H   0  0  0  0  0  0  0  0  0  0  0  0
   22.4970   21.3190   22.8930 H   0  0  0  0  0  0  0  0  0  0  0  0
   21.0590   22.0469   22.1427 H   0  0  0  0  0  0  0  0  0  0  0  0
  1  2  1  0  0  0  0
  1  3  1  0  0  0  0
  1  4  1  0  0  0  0
  1  5  1  0  0  0  0
  5  6  1  0  0  0  0
  5  7  1  0  0  0  0
  5  8  1  0  0  0  0
  8  9  1  0  0  0  0
  8 10  1  0  0  0  0
  8 11  1  0  0  0  0
 11 12  1  0  0  0  0
 11 13  1  0  0  0  0
 11 14  1  0  0  0  0
 14 15  1  0  0  0  0
 14 16  1  0  0  0  0
 14 17  1  0  0  0  0
 17 18  1  0  0  0  0
 17 19  1  0  0  0  0
 17 20  1  0  0  0  0
M  END
> <VConfSearch Rank>
217

> <Conf_Id>
69

> <Delta U+W>
2.811

> <U+W>
-8.967

> <U>
49.216

> <W>
-58.183

> <W(PB)>
-60.064

> <W(SA)>
1.881

> <Valence>
2.929

> <Coulomb>
46.006

> <VdW>
0.281

> <VdW6>
-4.909

> <VdW12>
5.190

> <Bond>
0.156

> <Angle>
0.974

> <Pdih>
1.799

> <Idih>
0.000

> <Tether>
0.000

$$$$
VeraChem MOL file


 20 19  0  0  0  0  0  0  0  0999 V2000     
   20.5139   18.6675   20.2277 N   0  3  0  0  0  0  0  0  0  0  0  0
   20.9489   18.1406   20.9894 H   0  0  0  0  0  0  0  0  0  0  0  0
   19.7395   18.0991   19.8705 H   0  0  0  0  0  0  0  0  0  0  0  0
   21.2058   18.7337   19.4737 H   0  0  0  0  0  0  0  0  0  0  0  0
   20.0443   20.0367   20.6810 C   0  0  0  0  0  0  0  0  0  0  0  0
   19.6083   20.5286   19.8072 H   0  0  0  0  0  0  0  0  0  0  0  0
   20.9154   20.6175   20.9959 H   0  0  0  0  0  0  0  0  0  0  0  0
   18.9967   20.0073   21.8137 C   0  0  0  0  0  0  0  0  0  0  0  0
   18.4435   20.9554   21.7811 H   0  0  0  0  0  0  0  0  0  0  0  0
   18.2556   19.2202   21.6209 H   0  0  0  0  0  0  0  0  0  0  0  0
   19.5907   19.8535   23.2375 C   0  0  0  0  0  0  0  0  0  0  0  0
   18.7722   19.9619   23.9627 H   0  0  0  0  0  0  0  0  0  0  0  0
   20.2856   20.6813   23.4357 H   0  0  0  0  0  0  0  0  0  0  0  0
   20.3073   18.5065   23.4915 C   0  0  0  0  0  0  0  0  0  0  0  0
   19.6548   17.6739   23.1931 H   0  0  0  0  0  0  0  0  0  0  0  0
   21.2173   18.4438   22.8818 H   0  0  0  0  0  0  0  0  0  0  0  0
   20.6980   18.3416   24.9758 C   0  0  0  0  0  0  0  0  0  0  0  0
   19.8111   18.3582   25.6227 H   0  0  0  0  0  0  0  0  0  0  0  0
   21.2136   17.3860   25.1373 H   0  0  0  0  0  0  0  0  0  0  0  0
   21.3715   19.1462   25.2985 H   0  0  0  0  0  0  0  0  0  0  0  0
  1  2  1  0  0  0  0
  1  3  1  0  0  0  0
  1  4  1  0  0  0  0
  1  5  1  0  0  0  0
  5  6  1  0  0  0  0
  5  7  1  0  0  0  0
  5  8  1  0  0  0  0
  8  9  1  0  0  0  0
  8 10  1  0  0  0  0
  8 11  1  0  0  0  0
 11 12  1  0  0  0  0
 11 13  1  0  0  0  0
 11 14  1  0  0  0  0
 14 15  1  0  0  0  0
 14 16  1  0  0  0  0
 14 17  1  0  0  0  0
 17 18  1  0  0  0  0
 17 19  1  0  0  0  0
 17 20  1  0  0  0  0
M  END
> <VConfSearch Rank>
218

> <Conf_Id>
26

> <Delta U+W>
2.809

> <U+W>
-8.969

> <U>
49.216

> <W>
-58.185

> <W(PB)>
-60.088

> <W(SA)>
1.903

> <Valence>
2.929

> <Coulomb>
46.006

> <VdW>
0.281

> <VdW6>
-4.909

> <VdW12>
5.190

> <Bond>
0.156

> <Angle>
0.974

> <Pdih>
1.799

> <Idih>
0.000

> <Tether>
0.000

$$$$
VeraChem MOL file


 20 19  0  0  0  0  0  0  0  0999 V2000     
   18.7275   17.5131   23.5266 N   0  3  0  0  0  0  0  0  0  0  0  0
   18.2120   18.3979   23.5434 H   0  0  0  0  0  0  0  0  0  0  0  0
   18.2117   16.8737   22.9140 H   0  0  0  0  0  0  0  0  0  0  0  0
   18.6827   17.1209   24.4729 H   0  0  0  0  0  0  0  0  0  0  0  0
   20.1583   17.7060   23.0634 C   0  0  0  0  0  0  0  0  0  0  0  0
   20.6544   16.7323   23.0998 H   0  0  0  0  0  0  0  0  0  0  0  0
   20.6593   18.3684   23.7742 H   0  0  0  0  0  0  0  0  0  0  0  0
   20.2757   18.2872   21.6398 C   0  0  0  0  0  0  0  0  0  0  0  0
   21.3359   18.3213   21.3579 H   0  0  0  0  0  0  0  0  0  0  0  0
   19.7993   17.5980   20.9300 H   0  0  0  0  0  0  0  0  0  0  0  0
   19.6489   19.6975   21.4807 C   0  0  0  0  0  0  0  0  0  0  0  0
   18.5599   19.6272   21.6042 H   0  0  0  0  0  0  0  0  0  0  0  0
   19.8090   20.0412   20.4495 H   0  0  0  0  0  0  0  0  0  0  0  0
   20.1973   20.7669   22.4598 C   0  0  0  0  0  0  0  0  0  0  0  0
   19.6719   21.7143   22.2744 H   0  0  0  0  0  0  0  0  0  0  0  0
   19.9623   20.4899   23.4964 H   0  0  0  0  0  0  0  0  0  0  0  0
   21.7178   21.0053   22.3184 C   0  0  0  0  0  0  0  0  0  0  0  0
   21.9819   21.2680   21.2858 H   0  0  0  0  0  0  0  0  0  0  0  0
   22.0397   21.8301   22.9672 H   0  0  0  0  0  0  0  0  0  0  0  0
   22.2932   20.1163   22.6051 H   0  0  0  0  0  0  0  0  0  0  0  0
  1  2  1  0  0  0  0
  1  3  1  0  0  0  0
  1  4  1  0  0  0  0
  1  5  1  0  0  0  0
  5  6  1  0  0  0  0
  5  7  1  0  0  0  0
  5  8  1  0  0  0  0
  8  9  1  0  0  0  0
  8 10  1  0  0  0  0
  8 11  1  0  0  0  0
 11 12  1  0  0  0  0
 11 13  1  0  0  0  0
 11 14  1  0  0  0  0
 14 15  1  0  0  0  0
 14 16  1  0  0  0  0
 14 17  1  0  0  0  0
 17 18  1  0  0  0  0
 17 19  1  0  0  0  0
 17 20  1  0  0  0  0
M  END
> <VConfSearch Rank>
219

> <Conf_Id>
2

> <Delta U+W>
0.994

> <U+W>
-10.784

> <U>
47.562

> <W>
-58.346

> <W(PB)>
-60.221

> <W(SA)>
1.875

> <Valence>
2.149

> <Coulomb>
45.034

> <VdW>
0.378

> <VdW6>
-5.599

> <VdW12>
5.977

> <Bond>
0.185

> <Angle>
0.935

> <Pdih>
1.028

> <Idih>
0.000

> <Tether>
0.000

$$$$
VeraChem MOL file


 20 19  0  0  0  0  0  0  0  0999 V2000     
   19.1514   20.5071   24.1315 N   0  3  0  0  0  0  0  0  0  0  0  0
   18.1285   20.4988   24.1923 H   0  0  0  0  0  0  0  0  0  0  0  0
   19.4901   19.6709   24.6162 H   0  0  0  0  0  0  0  0  0  0  0  0
   19.4757   21.3181   24.6685 H   0  0  0  0  0  0  0  0  0  0  0  0
   19.6303   20.5549   22.6936 C   0  0  0  0  0  0  0  0  0  0  0  0
   20.7227   20.5951   22.7004 H   0  0  0  0  0  0  0  0  0  0  0  0
   19.2596   21.4829   22.2499 H   0  0  0  0  0  0  0  0  0  0  0  0
   19.1595   19.3574   21.8436 C   0  0  0  0  0  0  0  0  0  0  0  0
   18.0619   19.3462   21.8155 H   0  0  0  0  0  0  0  0  0  0  0  0
   19.4837   19.5106   20.8063 H   0  0  0  0  0  0  0  0  0  0  0  0
   19.6711   17.9836   22.3515 C   0  0  0  0  0  0  0  0  0  0  0  0
   19.3152   17.1996   21.6690 H   0  0  0  0  0  0  0  0  0  0  0  0
   19.2114   17.7615   23.3239 H   0  0  0  0  0  0  0  0  0  0  0  0
   21.2113   17.8731   22.4874 C   0  0  0  0  0  0  0  0  0  0  0  0
   21.5790   18.5849   23.2389 H   0  0  0  0  0  0  0  0  0  0  0  0
   21.4586   16.8738   22.8723 H   0  0  0  0  0  0  0  0  0  0  0  0
   21.9617   18.0925   21.1541 C   0  0  0  0  0  0  0  0  0  0  0  0
   21.8376   19.1186   20.7862 H   0  0  0  0  0  0  0  0  0  0  0  0
   23.0373   17.9165   21.2847 H   0  0  0  0  0  0  0  0  0  0  0  0
   21.6006   17.4032   20.3799 H   0  0  0  0  0  0  0  0  0  0  0  0
  1  2  1  0  0  0  0
  1  3  1  0  0  0  0
  1  4  1  0  0  0  0
  1  5  1  0  0  0  0
  5  6  1  0  0  0  0
  5  7  1  0  0  0  0
  5  8  1  0  0  0  0
  8  9  1  0  0  0  0
  8 10  1  0  0  0  0
  8 11  1  0  0  0  0
 11 12  1  0  0  0  0
 11 13  1  0  0  0  0
 11 14  1  0  0  0  0
 14 15  1  0  0  0  0
 14 16  1  0  0  0  0
 14 17  1  0  0  0  0
 17 18  1  0  0  0  0
 17 19  1  0  0  0  0
 17 20  1  0  0  0  0
M  END
> <VConfSearch Rank>
220

> <Conf_Id>
1

> <Delta U+W>
1.032

> <U+W>
-10.746

> <U>
47.562

> <W>
-58.308

> <W(PB)>
-60.184

> <W(SA)>
1.877

> <Valence>
2.149

> <Coulomb>
45.035

> <VdW>
0.378

> <VdW6>
-5.599

> <VdW12>
5.978

> <Bond>
0.185

> <Angle>
0.935

> <Pdih>
1.028

> <Idih>
0.000

> <Tether>
0.000

$$$$
VeraChem MOL file


 20 19  0  0  0  0  0  0  0  0999 V2000     
   18.5190   17.7437   23.2713 N   0  3  0  0  0  0  0  0  0  0  0  0
   18.7626   16.9135   23.8204 H   0  0  0  0  0  0  0  0  0  0  0  0
   18.5913   18.5519   23.8961 H   0  0  0  0  0  0  0  0  0  0  0  0
   17.5306   17.6515   23.0143 H   0  0  0  0  0  0  0  0  0  0  0  0
   19.4064   17.8937   22.0508 C   0  0  0  0  0  0  0  0  0  0  0  0
   19.0735   18.7744   21.4993 H   0  0  0  0  0  0  0  0  0  0  0  0
   19.2429   17.0183   21.4164 H   0  0  0  0  0  0  0  0  0  0  0  0
   20.9099   18.0040   22.3827 C   0  0  0  0  0  0  0  0  0  0  0  0
   21.2013   17.1063   22.9441 H   0  0  0  0  0  0  0  0  0  0  0  0
   21.4907   17.9773   21.4513 H   0  0  0  0  0  0  0  0  0  0  0  0
   21.3031   19.2603   23.2057 C   0  0  0  0  0  0  0  0  0  0  0  0
   22.2445   19.0395   23.7275 H   0  0  0  0  0  0  0  0  0  0  0  0
   20.5677   19.4501   23.9981 H   0  0  0  0  0  0  0  0  0  0  0  0
   21.5273   20.5480   22.3716 C   0  0  0  0  0  0  0  0  0  0  0  0
   21.8885   21.3368   23.0464 H   0  0  0  0  0  0  0  0  0  0  0  0
   22.3325   20.3818   21.6424 H   0  0  0  0  0  0  0  0  0  0  0  0
   20.2702   21.0671   21.6393 C   0  0  0  0  0  0  0  0  0  0  0  0
   19.4117   21.1356   22.3197 H   0  0  0  0  0  0  0  0  0  0  0  0
   20.4536   22.0687   21.2294 H   0  0  0  0  0  0  0  0  0  0  0  0
   20.0019   20.4182   20.7972 H   0  0  0  0  0  0  0  0  0  0  0  0
  1  2  1  0  0  0  0
  1  3  1  0  0  0  0
  1  4  1  0  0  0  0
  1  5  1  0  0  0  0
  5  6  1  0  0  0  0
  5  7  1  0  0  0  0
  5  8  1  0  0  0  0
  8  9  1  0  0  0  0
  8 10  1  0  0  0  0
  8 11  1  0  0  0  0
 11 12  1  0  0  0  0
 11 13  1  0  0  0  0
 11 14  1  0  0  0  0
 14 15  1  0  0  0  0
 14 16  1  0  0  0  0
 14 17  1  0  0  0  0
 17 18  1  0  0  0  0
 17 19  1  0  0  0  0
 17 20  1  0  0  0  0
M  END
> <VConfSearch Rank>
221

> <Conf_Id>
80

> <Delta U+W>
2.920

> <U+W>
-8.857

> <U>
49.434

> <W>
-58.292

> <W(PB)>
-60.170

> <W(SA)>
1.879

> <Valence>
3.798

> <Coulomb>
45.253

> <VdW>
0.384

> <VdW6>
-5.595

> <VdW12>
5.979

> <Bond>
0.198

> <Angle>
1.368

> <Pdih>
2.231

> <Idih>
0.000

> <Tether>
0.000

$$$$
VeraChem MOL file


 20 19  0  0  0  0  0  0  0  0999 V2000     
   22.2888   18.2848   21.9960 N   0  3  0  0  0  0  0  0  0  0  0  0
   23.0561   18.4224   22.6611 H   0  0  0  0  0  0  0  0  0  0  0  0
   22.5934   17.5628   21.3347 H   0  0  0  0  0  0  0  0  0  0  0  0
   22.1892   19.1543   21.4643 H   0  0  0  0  0  0  0  0  0  0  0  0
   20.9987   17.9004   22.6943 C   0  0  0  0  0  0  0  0  0  0  0  0
   21.1713   16.9472   23.2015 H   0  0  0  0  0  0  0  0  0  0  0  0
   20.2372   17.7402   21.9294 H   0  0  0  0  0  0  0  0  0  0  0  0
   20.5137   18.9414   23.7257 C   0  0  0  0  0  0  0  0  0  0  0  0
   19.6555   18.5347   24.2768 H   0  0  0  0  0  0  0  0  0  0  0  0
   21.3097   19.0802   24.4693 H   0  0  0  0  0  0  0  0  0  0  0  0
   20.1398   20.3241   23.1267 C   0  0  0  0  0  0  0  0  0  0  0  0
   20.8719   20.6282   22.3676 H   0  0  0  0  0  0  0  0  0  0  0  0
   20.2223   21.0713   23.9281 H   0  0  0  0  0  0  0  0  0  0  0  0
   18.7047   20.4227   22.5480 C   0  0  0  0  0  0  0  0  0  0  0  0
   17.9710   20.2105   23.3382 H   0  0  0  0  0  0  0  0  0  0  0  0
   18.5275   21.4634   22.2423 H   0  0  0  0  0  0  0  0  0  0  0  0
   18.4350   19.5033   21.3364 C   0  0  0  0  0  0  0  0  0  0  0  0
   18.3754   18.4511   21.6388 H   0  0  0  0  0  0  0  0  0  0  0  0
   17.4756   19.7596   20.8687 H   0  0  0  0  0  0  0  0  0  0  0  0
   19.2178   19.6077   20.5741 H   0  0  0  0  0  0  0  0  0  0  0  0
  1  2  1  0  0  0  0
  1  3  1  0  0  0  0
  1  4  1  0  0  0  0
  1  5  1  0  0  0  0
  5  6  1  0  0  0  0
  5  7  1  0  0  0  0
  5  8  1  0  0  0  0
  8  9  1  0  0  0  0
  8 10  1  0  0  0  0
  8 11  1  0  0  0  0
 11 12  1  0  0  0  0
 11 13  1  0  0  0  0
 11 14  1  0  0  0  0
 14 15  1  0  0  0  0
 14 16  1  0  0  0  0
 14 17  1  0  0  0  0
 17 18  1  0  0  0  0
 17 19  1  0  0  0  0
 17 20  1  0  0  0  0
M  END
> <VConfSearch Rank>
222

> <Conf_Id>
65

> <Delta U+W>
2.949

> <U+W>
-8.829

> <U>
49.435

> <W>
-58.263

> <W(PB)>
-60.125

> <W(SA)>
1.862

> <Valence>
3.797

> <Coulomb>
45.253

> <VdW>
0.384

> <VdW6>
-5.596

> <VdW12>
5.980

> <Bond>
0.198

> <Angle>
1.369

> <Pdih>
2.230

> <Idih>
0.000

> <Tether>
0.000

$$$$
VeraChem MOL file


 20 19  0  0  0  0  0  0  0  0999 V2000     
   19.9290   21.1782   22.7186 N   0  3  0  0  0  0  0  0  0  0  0  0
   20.4316   22.0317   22.4528 H   0  0  0  0  0  0  0  0  0  0  0  0
   19.6301   20.7173   21.8538 H   0  0  0  0  0  0  0  0  0  0  0  0
   19.0825   21.4734   23.2153 H   0  0  0  0  0  0  0  0  0  0  0  0
   20.7872   20.2596   23.5666 C   0  0  0  0  0  0  0  0  0  0  0  0
   21.0621   20.8187   24.4652 H   0  0  0  0  0  0  0  0  0  0  0  0
   21.7037   20.0293   23.0169 H   0  0  0  0  0  0  0  0  0  0  0  0
   20.0834   18.9520   23.9830 C   0  0  0  0  0  0  0  0  0  0  0  0
   20.5825   18.5778   24.8867 H   0  0  0  0  0  0  0  0  0  0  0  0
   19.0482   19.1655   24.2807 H   0  0  0  0  0  0  0  0  0  0  0  0
   20.1126   17.8187   22.9226 C   0  0  0  0  0  0  0  0  0  0  0  0
   19.6293   16.9387   23.3694 H   0  0  0  0  0  0  0  0  0  0  0  0
   21.1505   17.5153   22.7272 H   0  0  0  0  0  0  0  0  0  0  0  0
   19.3912   18.1361   21.5879 C   0  0  0  0  0  0  0  0  0  0  0  0
   18.9159   17.2159   21.2196 H   0  0  0  0  0  0  0  0  0  0  0  0
   18.5698   18.8460   21.7543 H   0  0  0  0  0  0  0  0  0  0  0  0
   20.3494   18.6466   20.4856 C   0  0  0  0  0  0  0  0  0  0  0  0
   20.9198   19.5270   20.8004 H   0  0  0  0  0  0  0  0  0  0  0  0
   21.0726   17.8673   20.2117 H   0  0  0  0  0  0  0  0  0  0  0  0
   19.7901   18.9111   19.5788 H   0  0  0  0  0  0  0  0  0  0  0  0
  1  2  1  0  0  0  0
  1  3  1  0  0  0  0
  1  4  1  0  0  0  0
  1  5  1  0  0  0  0
  5  6  1  0  0  0  0
  5  7  1  0  0  0  0
  5  8  1  0  0  0  0
  8  9  1  0  0  0  0
  8 10  1  0  0  0  0
  8 11  1  0  0  0  0
 11 12  1  0  0  0  0
 11 13  1  0  0  0  0
 11 14  1  0  0  0  0
 14 15  1  0  0  0  0
 14 16  1  0  0  0  0
 14 17  1  0  0  0  0
 17 18  1  0  0  0  0
 17 19  1  0  0  0  0
 17 20  1  0  0  0  0
M  END
> <VConfSearch Rank>
223

> <Conf_Id>
77

> <Delta U+W>
5.366

> <U+W>
-6.412

> <U>
51.542

> <W>
-57.954

> <W(PB)>
-59.811

> <W(SA)>
1.857

> <Valence>
5.347

> <Coulomb>
45.870

> <VdW>
0.325

> <VdW6>
-6.161

> <VdW12>
6.486

> <Bond>
0.201

> <Angle>
1.484

> <Pdih>
3.662

> <Idih>
0.000

> <Tether>
0.000

$$$$
VeraChem MOL file


 20 19  0  0  0  0  0  0  0  0999 V2000     
   20.2815   17.0600   22.4492 N   0  3  0  0  0  0  0  0  0  0  0  0
   20.9618   16.6480   23.0956 H   0  0  0  0  0  0  0  0  0  0  0  0
   19.5982   17.5747   23.0129 H   0  0  0  0  0  0  0  0  0  0  0  0
   19.7856   16.2816   22.0022 H   0  0  0  0  0  0  0  0  0  0  0  0
   20.9493   17.9624   21.4297 C   0  0  0  0  0  0  0  0  0  0  0  0
   20.1910   18.3211   20.7287 H   0  0  0  0  0  0  0  0  0  0  0  0
   21.6602   17.3451   20.8738 H   0  0  0  0  0  0  0  0  0  0  0  0
   21.6989   19.1598   22.0485 C   0  0  0  0  0  0  0  0  0  0  0  0
   22.2535   18.8319   22.9378 H   0  0  0  0  0  0  0  0  0  0  0  0
   22.4591   19.4865   21.3267 H   0  0  0  0  0  0  0  0  0  0  0  0
   20.8138   20.3880   22.3922 C   0  0  0  0  0  0  0  0  0  0  0  0
   20.3664   20.7955   21.4750 H   0  0  0  0  0  0  0  0  0  0  0  0
   21.4795   21.1769   22.7691 H   0  0  0  0  0  0  0  0  0  0  0  0
   19.7139   20.1400   23.4558 C   0  0  0  0  0  0  0  0  0  0  0  0
   20.0246   19.3505   24.1532 H   0  0  0  0  0  0  0  0  0  0  0  0
   19.6067   21.0477   24.0664 H   0  0  0  0  0  0  0  0  0  0  0  0
   18.3320   19.8205   22.8378 C   0  0  0  0  0  0  0  0  0  0  0  0
   17.5987   19.5978   23.6239 H   0  0  0  0  0  0  0  0  0  0  0  0
   17.9553   20.6808   22.2692 H   0  0  0  0  0  0  0  0  0  0  0  0
   18.3657   18.9653   22.1543 H   0  0  0  0  0  0  0  0  0  0  0  0
  1  2  1  0  0  0  0
  1  3  1  0  0  0  0
  1  4  1  0  0  0  0
  1  5  1  0  0  0  0
  5  6  1  0  0  0  0
  5  7  1  0  0  0  0
  5  8  1  0  0  0  0
  8  9  1  0  0  0  0
  8 10  1  0  0  0  0
  8 11  1  0  0  0  0
 11 12  1  0  0  0  0
 11 13  1  0  0  0  0
 11 14  1  0  0  0  0
 14 15  1  0  0  0  0
 14 16  1  0  0  0  0
 14 17  1  0  0  0  0
 17 18  1  0  0  0  0
 17 19  1  0  0  0  0
 17 20  1  0  0  0  0
M  END
> <VConfSearch Rank>
224

> <Conf_Id>
67

> <Delta U+W>
5.353

> <U+W>
-6.425

> <U>
51.541

> <W>
-57.966

> <W(PB)>
-59.821

> <W(SA)>
1.855

> <Valence>
5.347

> <Coulomb>
45.870

> <VdW>
0.325

> <VdW6>
-6.161

> <VdW12>
6.486

> <Bond>
0.201

> <Angle>
1.485

> <Pdih>
3.662

> <Idih>
0.000

> <Tether>
0.000

$$$$
VeraChem MOL file


 20 19  0  0  0  0  0  0  0  0999 V2000     
   20.6680   22.1932   21.6434 N   0  3  0  0  0  0  0  0  0  0  0  0
   21.3681   22.0288   20.9132 H   0  0  0  0  0  0  0  0  0  0  0  0
   20.1074   22.9972   21.3420 H   0  0  0  0  0  0  0  0  0  0  0  0
   21.1741   22.4832   22.4861 H   0  0  0  0  0  0  0  0  0  0  0  0
   19.8094   20.9693   21.8911 C   0  0  0  0  0  0  0  0  0  0  0  0
   19.2785   20.7362   20.9641 H   0  0  0  0  0  0  0  0  0  0  0  0
   19.0700   21.2247   22.6551 H   0  0  0  0  0  0  0  0  0  0  0  0
   20.6210   19.7428   22.3454 C   0  0  0  0  0  0  0  0  0  0  0  0
   21.3727   19.4997   21.5826 H   0  0  0  0  0  0  0  0  0  0  0  0
   21.1650   19.9865   23.2677 H   0  0  0  0  0  0  0  0  0  0  0  0
   19.7097   18.5188   22.5866 C   0  0  0  0  0  0  0  0  0  0  0  0
   19.1631   18.2811   21.6633 H   0  0  0  0  0  0  0  0  0  0  0  0
   18.9557   18.7672   23.3465 H   0  0  0  0  0  0  0  0  0  0  0  0
   20.5141   17.2811   23.0432 C   0  0  0  0  0  0  0  0  0  0  0  0
   21.2682   17.0278   22.2848 H   0  0  0  0  0  0  0  0  0  0  0  0
   21.0608   17.5138   23.9678 H   0  0  0  0  0  0  0  0  0  0  0  0
   19.5996   16.0607   23.2829 C   0  0  0  0  0  0  0  0  0  0  0  0
   19.0645   15.7818   22.3658 H   0  0  0  0  0  0  0  0  0  0  0  0
   20.1885   15.1925   23.6061 H   0  0  0  0  0  0  0  0  0  0  0  0
   18.8555   16.2716   24.0620 H   0  0  0  0  0  0  0  0  0  0  0  0
  1  2  1  0  0  0  0
  1  3  1  0  0  0  0
  1  4  1  0  0  0  0
  1  5  1  0  0  0  0
  5  6  1  0  0  0  0
  5  7  1  0  0  0  0
  5  8  1  0  0  0  0
  8  9  1  0  0  0  0
  8 10  1  0  0  0  0
  8 11  1  0  0  0  0
 11 12  1  0  0  0  0
 11 13  1  0  0  0  0
 11 14  1  0  0  0  0
 14 15  1  0  0  0  0
 14 16  1  0  0  0  0
 14 17  1  0  0  0  0
 17 18  1  0  0  0  0
 17 19  1  0  0  0  0
 17 20  1  0  0  0  0
M  END
> <VConfSearch Rank>
225

> <Conf_Id>
72

> <Delta U+W>
0.000

> <U+W>
-11.778

> <U>
45.772

> <W>
-57.550

> <W(PB)>
-59.511

> <W(SA)>
1.961

> <Valence>
1.299

> <Coulomb>
44.177

> <VdW>
0.297

> <VdW6>
-3.490

> <VdW12>
3.786

> <Bond>
0.096

> <Angle>
0.381

> <Pdih>
0.822

> <Idih>
0.000

> <Tether>
0.000

$$$$
VeraChem MOL file


 20 19  0  0  0  0  0  0  0  0999 V2000     
   22.2187   17.0615   22.7189 N   0  3  0  0  0  0  0  0  0  0  0  0
   22.6183   17.5196   23.5440 H   0  0  0  0  0  0  0  0  0  0  0  0
   21.6164   16.3042   23.0567 H   0  0  0  0  0  0  0  0  0  0  0  0
   22.9970   16.6209   22.2173 H   0  0  0  0  0  0  0  0  0  0  0  0
   21.4627   18.0372   21.8396 C   0  0  0  0  0  0  0  0  0  0  0  0
   21.0925   17.4894   20.9687 H   0  0  0  0  0  0  0  0  0  0  0  0
   22.1690   18.7963   21.4927 H   0  0  0  0  0  0  0  0  0  0  0  0
   20.2859   18.7168   22.5623 C   0  0  0  0  0  0  0  0  0  0  0  0
   19.5873   17.9501   22.9227 H   0  0  0  0  0  0  0  0  0  0  0  0
   20.6663   19.2483   23.4438 H   0  0  0  0  0  0  0  0  0  0  0  0
   19.5427   19.7007   21.6281 C   0  0  0  0  0  0  0  0  0  0  0  0
   19.2366   19.1672   20.7173 H   0  0  0  0  0  0  0  0  0  0  0  0
   20.2302   20.4944   21.3041 H   0  0  0  0  0  0  0  0  0  0  0  0
   18.2863   20.3354   22.2726 C   0  0  0  0  0  0  0  0  0  0  0  0
   17.7641   20.9335   21.5127 H   0  0  0  0  0  0  0  0  0  0  0  0
   17.5850   19.5456   22.5765 H   0  0  0  0  0  0  0  0  0  0  0  0
   18.6073   21.2400   23.4843 C   0  0  0  0  0  0  0  0  0  0  0  0
   19.3289   22.0217   23.2138 H   0  0  0  0  0  0  0  0  0  0  0  0
   17.6967   21.7351   23.8458 H   0  0  0  0  0  0  0  0  0  0  0  0
   19.0219   20.6630   24.3201 H   0  0  0  0  0  0  0  0  0  0  0  0
  1  2  1  0  0  0  0
  1  3  1  0  0  0  0
  1  4  1  0  0  0  0
  1  5  1  0  0  0  0
  5  6  1  0  0  0  0
  5  7  1  0  0  0  0
  5  8  1  0  0  0  0
  8  9  1  0  0  0  0
  8 10  1  0  0  0  0
  8 11  1  0  0  0  0
 11 12  1  0  0  0  0
 11 13  1  0  0  0  0
 11 14  1  0  0  0  0
 14 15  1  0  0  0  0
 14 16  1  0  0  0  0
 14 17  1  0  0  0  0
 17 18  1  0  0  0  0
 17 19  1  0  0  0  0
 17 20  1  0  0  0  0
M  END
> <VConfSearch Rank>
226

> <Conf_Id>
42

> <Delta U+W>
0.508

> <U+W>
-11.270

> <U>
46.486

> <W>
-57.756

> <W(PB)>
-59.705

> <W(SA)>
1.949

> <Valence>
1.806

> <Coulomb>
44.248

> <VdW>
0.433

> <VdW6>
-4.089

> <VdW12>
4.522

> <Bond>
0.131

> <Angle>
0.628

> <Pdih>
1.047

> <Idih>
0.000

> <Tether>
0.000

$$$$
VeraChem MOL file


 20 19  0  0  0  0  0  0  0  0999 V2000     
   17.6008   17.7647   23.3873 N   0  3  0  0  0  0  0  0  0  0  0  0
   16.9824   18.5684   23.2389 H   0  0  0  0  0  0  0  0  0  0  0  0
   17.5609   17.1929   22.5377 H   0  0  0  0  0  0  0  0  0  0  0  0
   17.1865   17.2063   24.1411 H   0  0  0  0  0  0  0  0  0  0  0  0
   19.0168   18.1925   23.7165 C   0  0  0  0  0  0  0  0  0  0  0  0
   19.6100   17.2907   23.8909 H   0  0  0  0  0  0  0  0  0  0  0  0
   18.9877   18.7690   24.6451 H   0  0  0  0  0  0  0  0  0  0  0  0
   19.6688   19.0340   22.6048 C   0  0  0  0  0  0  0  0  0  0  0  0
   19.6764   18.4528   21.6741 H   0  0  0  0  0  0  0  0  0  0  0  0
   19.0614   19.9304   22.4220 H   0  0  0  0  0  0  0  0  0  0  0  0
   21.1099   19.4497   22.9838 C   0  0  0  0  0  0  0  0  0  0  0  0
   21.7297   18.5528   23.1216 H   0  0  0  0  0  0  0  0  0  0  0  0
   21.0902   19.9633   23.9552 H   0  0  0  0  0  0  0  0  0  0  0  0
   21.7764   20.3850   21.9457 C   0  0  0  0  0  0  0  0  0  0  0  0
   21.1719   21.2946   21.8224 H   0  0  0  0  0  0  0  0  0  0  0  0
   22.7482   20.7137   22.3400 H   0  0  0  0  0  0  0  0  0  0  0  0
   21.9976   19.7174   20.5692 C   0  0  0  0  0  0  0  0  0  0  0  0
   21.0458   19.4788   20.0786 H   0  0  0  0  0  0  0  0  0  0  0  0
   22.5529   20.3888   19.9015 H   0  0  0  0  0  0  0  0  0  0  0  0
   22.5760   18.7897   20.6683 H   0  0  0  0  0  0  0  0  0  0  0  0
  1  2  1  0  0  0  0
  1  3  1  0  0  0  0
  1  4  1  0  0  0  0
  1  5  1  0  0  0  0
  5  6  1  0  0  0  0
  5  7  1  0  0  0  0
  5  8  1  0  0  0  0
  8  9  1  0  0  0  0
  8 10  1  0  0  0  0
  8 11  1  0  0  0  0
 11 12  1  0  0  0  0
 11 13  1  0  0  0  0
 11 14  1  0  0  0  0
 14 15  1  0  0  0  0
 14 16  1  0  0  0  0
 14 17  1  0  0  0  0
 17 18  1  0  0  0  0
 17 19  1  0  0  0  0
 17 20  1  0  0  0  0
M  END
> <VConfSearch Rank>
227

> <Conf_Id>
41

> <Delta U+W>
0.515

> <U+W>
-11.263

> <U>
46.486

> <W>
-57.749

> <W(PB)>
-59.685

> <W(SA)>
1.936

> <Valence>
1.806

> <Coulomb>
44.248

> <VdW>
0.433

> <VdW6>
-4.089

> <VdW12>
4.522

> <Bond>
0.131

> <Angle>
0.628

> <Pdih>
1.047

> <Idih>
0.000

> <Tether>
0.000

$$$$
VeraChem MOL file


 20 19  0  0  0  0  0  0  0  0999 V2000     
   21.5835   21.0798   23.7959 N   0  3  0  0  0  0  0  0  0  0  0  0
   22.4633   21.5529   24.0274 H   0  0  0  0  0  0  0  0  0  0  0  0
   21.1576   21.6028   23.0252 H   0  0  0  0  0  0  0  0  0  0  0  0
   20.9676   21.1825   24.6085 H   0  0  0  0  0  0  0  0  0  0  0  0
   21.8057   19.6233   23.4359 C   0  0  0  0  0  0  0  0  0  0  0  0
   22.3001   19.1447   24.2857 H   0  0  0  0  0  0  0  0  0  0  0  0
   22.4861   19.5843   22.5810 H   0  0  0  0  0  0  0  0  0  0  0  0
   20.5101   18.8574   23.1032 C   0  0  0  0  0  0  0  0  0  0  0  0
   20.7666   17.7984   22.9752 H   0  0  0  0  0  0  0  0  0  0  0  0
   19.8219   18.9131   23.9569 H   0  0  0  0  0  0  0  0  0  0  0  0
   19.8141   19.3860   21.8236 C   0  0  0  0  0  0  0  0  0  0  0  0
   20.5006   19.3060   20.9694 H   0  0  0  0  0  0  0  0  0  0  0  0
   19.5928   20.4548   21.9430 H   0  0  0  0  0  0  0  0  0  0  0  0
   18.4911   18.6527   21.4938 C   0  0  0  0  0  0  0  0  0  0  0  0
   17.7956   18.7416   22.3401 H   0  0  0  0  0  0  0  0  0  0  0  0
   18.0091   19.1603   20.6464 H   0  0  0  0  0  0  0  0  0  0  0  0
   18.6852   17.1618   21.1342 C   0  0  0  0  0  0  0  0  0  0  0  0
   19.0491   16.5832   21.9921 H   0  0  0  0  0  0  0  0  0  0  0  0
   17.7334   16.7164   20.8172 H   0  0  0  0  0  0  0  0  0  0  0  0
   19.4011   17.0439   20.3104 H   0  0  0  0  0  0  0  0  0  0  0  0
  1  2  1  0  0  0  0
  1  3  1  0  0  0  0
  1  4  1  0  0  0  0
  1  5  1  0  0  0  0
  5  6  1  0  0  0  0
  5  7  1  0  0  0  0
  5  8  1  0  0  0  0
  8  9  1  0  0  0  0
  8 10  1  0  0  0  0
  8 11  1  0  0  0  0
 11 12  1  0  0  0  0
 11 13  1  0  0  0  0
 11 14  1  0  0  0  0
 14 15  1  0  0  0  0
 14 16  1  0  0  0  0
 14 17  1  0  0  0  0
 17 18  1  0  0  0  0
 17 19  1  0  0  0  0
 17 20  1  0  0  0  0
M  END
> <VConfSearch Rank>
228

> <Conf_Id>
33

> <Delta U+W>
0.703

> <U+W>
-11.075

> <U>
47.080

> <W>
-58.154

> <W(PB)>
-60.053

> <W(SA)>
1.899

> <Valence>
1.943

> <Coulomb>
44.572

> <VdW>
0.565

> <VdW6>
-4.575

> <VdW12>
5.139

> <Bond>
0.158

> <Angle>
0.700

> <Pdih>
1.085

> <Idih>
0.000

> <Tether>
0.000

$$$$
VeraChem MOL file


 20 19  0  0  0  0  0  0  0  0999 V2000     
   19.0073   19.5919   19.9865 N   0  3  0  0  0  0  0  0  0  0  0  0
   18.1953   19.7690   19.3858 H   0  0  0  0  0  0  0  0  0  0  0  0
   19.8118   20.0433   19.5402 H   0  0  0  0  0  0  0  0  0  0  0  0
   19.1776   18.5821   19.9673 H   0  0  0  0  0  0  0  0  0  0  0  0
   18.7850   20.1009   21.3977 C   0  0  0  0  0  0  0  0  0  0  0  0
   17.9033   19.5990   21.8053 H   0  0  0  0  0  0  0  0  0  0  0  0
   18.5673   21.1705   21.3327 H   0  0  0  0  0  0  0  0  0  0  0  0
   19.9870   19.8821   22.3375 C   0  0  0  0  0  0  0  0  0  0  0  0
   20.8749   20.3725   21.9169 H   0  0  0  0  0  0  0  0  0  0  0  0
   19.7701   20.3864   23.2873 H   0  0  0  0  0  0  0  0  0  0  0  0
   20.2798   18.3825   22.5956 C   0  0  0  0  0  0  0  0  0  0  0  0
   20.4602   17.8753   21.6386 H   0  0  0  0  0  0  0  0  0  0  0  0
   19.3948   17.9037   23.0372 H   0  0  0  0  0  0  0  0  0  0  0  0
   21.5069   18.1422   23.5085 C   0  0  0  0  0  0  0  0  0  0  0  0
   21.7115   17.0630   23.5464 H   0  0  0  0  0  0  0  0  0  0  0  0
   22.3978   18.6077   23.0643 H   0  0  0  0  0  0  0  0  0  0  0  0
   21.3133   18.6617   24.9516 C   0  0  0  0  0  0  0  0  0  0  0  0
   20.4105   18.2350   25.4075 H   0  0  0  0  0  0  0  0  0  0  0  0
   22.1696   18.3815   25.5785 H   0  0  0  0  0  0  0  0  0  0  0  0
   21.2294   19.7551   24.9797 H   0  0  0  0  0  0  0  0  0  0  0  0
  1  2  1  0  0  0  0
  1  3  1  0  0  0  0
  1  4  1  0  0  0  0
  1  5  1  0  0  0  0
  5  6  1  0  0  0  0
  5  7  1  0  0  0  0
  5  8  1  0  0  0  0
  8  9  1  0  0  0  0
  8 10  1  0  0  0  0
  8 11  1  0  0  0  0
 11 12  1  0  0  0  0
 11 13  1  0  0  0  0
 11 14  1  0  0  0  0
 14 15  1  0  0  0  0
 14 16  1  0  0  0  0
 14 17  1  0  0  0  0
 17 18  1  0  0  0  0
 17 19  1  0  0  0  0
 17 20  1  0  0  0  0
M  END
> <VConfSearch Rank>
229

> <Conf_Id>
24

> <Delta U+W>
0.847

> <U+W>
-10.931

> <U>
47.080

> <W>
-58.011

> <W(PB)>
-59.914

> <W(SA)>
1.903

> <Valence>
1.943

> <Coulomb>
44.572

> <VdW>
0.565

> <VdW6>
-4.575

> <VdW12>
5.140

> <Bond>
0.158

> <Angle>
0.700

> <Pdih>
1.085

> <Idih>
0.000

> <Tether>
0.000

$$$$
VeraChem MOL file


 20 19  0  0  0  0  0  0  0  0999 V2000     
   19.1684   20.0164   20.0503 N   0  3  0  0  0  0  0  0  0  0  0  0
   19.1595   20.9698   19.6731 H   0  0  0  0  0  0  0  0  0  0  0  0
   19.9112   19.5092   19.5591 H   0  0  0  0  0  0  0  0  0  0  0  0
   18.2794   19.5827   19.7822 H   0  0  0  0  0  0  0  0  0  0  0  0
   19.3730   20.0067   21.5518 C   0  0  0  0  0  0  0  0  0  0  0  0
   18.5657   20.5869   22.0067 H   0  0  0  0  0  0  0  0  0  0  0  0
   20.3201   20.5092   21.7649 H   0  0  0  0  0  0  0  0  0  0  0  0
   19.3921   18.5877   22.1509 C   0  0  0  0  0  0  0  0  0  0  0  0
   18.4539   18.0776   21.8956 H   0  0  0  0  0  0  0  0  0  0  0  0
   20.1964   18.0016   21.6883 H   0  0  0  0  0  0  0  0  0  0  0  0
   19.5564   18.5896   23.6913 C   0  0  0  0  0  0  0  0  0  0  0  0
   19.5499   17.5516   24.0515 H   0  0  0  0  0  0  0  0  0  0  0  0
   18.6782   19.0715   24.1430 H   0  0  0  0  0  0  0  0  0  0  0  0
   20.8348   19.2976   24.2087 C   0  0  0  0  0  0  0  0  0  0  0  0
   20.8095   20.3646   23.9488 H   0  0  0  0  0  0  0  0  0  0  0  0
   20.8384   19.2554   25.3070 H   0  0  0  0  0  0  0  0  0  0  0  0
   22.1433   18.6653   23.6822 C   0  0  0  0  0  0  0  0  0  0  0  0
   23.0153   19.1412   24.1492 H   0  0  0  0  0  0  0  0  0  0  0  0
   22.1837   17.5926   23.9115 H   0  0  0  0  0  0  0  0  0  0  0  0
   22.2421   18.7893   22.5966 H   0  0  0  0  0  0  0  0  0  0  0  0
  1  2  1  0  0  0  0
  1  3  1  0  0  0  0
  1  4  1  0  0  0  0
  1  5  1  0  0  0  0
  5  6  1  0  0  0  0
  5  7  1  0  0  0  0
  5  8  1  0  0  0  0
  8  9  1  0  0  0  0
  8 10  1  0  0  0  0
  8 11  1  0  0  0  0
 11 12  1  0  0  0  0
 11 13  1  0  0  0  0
 11 14  1  0  0  0  0
 14 15  1  0  0  0  0
 14 16  1  0  0  0  0
 14 17  1  0  0  0  0
 17 18  1  0  0  0  0
 17 19  1  0  0  0  0
 17 20  1  0  0  0  0
M  END
> <VConfSearch Rank>
230

> <Conf_Id>
64

> <Delta U+W>
0.707

> <U+W>
-11.070

> <U>
47.077

> <W>
-58.148

> <W(PB)>
-60.054

> <W(SA)>
1.906

> <Valence>
2.039

> <Coulomb>
44.655

> <VdW>
0.383

> <VdW6>
-4.912

> <VdW12>
5.295

> <Bond>
0.159

> <Angle>
0.856

> <Pdih>
1.024

> <Idih>
0.000

> <Tether>
0.000

$$$$
VeraChem MOL file


 20 19  0  0  0  0  0  0  0  0999 V2000     
   20.9845   21.6449   21.9819 N   0  3  0  0  0  0  0  0  0  0  0  0
   21.6087   22.0449   22.6895 H   0  0  0  0  0  0  0  0  0  0  0  0
   21.5721   21.3402   21.1995 H   0  0  0  0  0  0  0  0  0  0  0  0
   20.3999   22.4120   21.6337 H   0  0  0  0  0  0  0  0  0  0  0  0
   20.1503   20.5094   22.5396 C   0  0  0  0  0  0  0  0  0  0  0  0
   19.4912   20.1542   21.7431 H   0  0  0  0  0  0  0  0  0  0  0  0
   19.5303   20.9099   23.3462 H   0  0  0  0  0  0  0  0  0  0  0  0
   20.9991   19.3392   23.0712 C   0  0  0  0  0  0  0  0  0  0  0  0
   21.6286   18.9423   22.2646 H   0  0  0  0  0  0  0  0  0  0  0  0
   21.6862   19.7147   23.8411 H   0  0  0  0  0  0  0  0  0  0  0  0
   20.1396   18.2033   23.6803 C   0  0  0  0  0  0  0  0  0  0  0  0
   19.6125   18.5895   24.5637 H   0  0  0  0  0  0  0  0  0  0  0  0
   20.8057   17.4109   24.0487 H   0  0  0  0  0  0  0  0  0  0  0  0
   19.1007   17.5823   22.7117 C   0  0  0  0  0  0  0  0  0  0  0  0
   18.5393   16.8064   23.2508 H   0  0  0  0  0  0  0  0  0  0  0  0
   18.3603   18.3374   22.4142 H   0  0  0  0  0  0  0  0  0  0  0  0
   19.7355   16.9520   21.4512 C   0  0  0  0  0  0  0  0  0  0  0  0
   20.4952   16.2073   21.7220 H   0  0  0  0  0  0  0  0  0  0  0  0
   18.9708   16.4467   20.8473 H   0  0  0  0  0  0  0  0  0  0  0  0
   20.2086   17.7112   20.8160 H   0  0  0  0  0  0  0  0  0  0  0  0
  1  2  1  0  0  0  0
  1  3  1  0  0  0  0
  1  4  1  0  0  0  0
  1  5  1  0  0  0  0
  5  6  1  0  0  0  0
  5  7  1  0  0  0  0
  5  8  1  0  0  0  0
  8  9  1  0  0  0  0
  8 10  1  0  0  0  0
  8 11  1  0  0  0  0
 11 12  1  0  0  0  0
 11 13  1  0  0  0  0
 11 14  1  0  0  0  0
 14 15  1  0  0  0  0
 14 16  1  0  0  0  0
 14 17  1  0  0  0  0
 17 18  1  0  0  0  0
 17 19  1  0  0  0  0
 17 20  1  0  0  0  0
M  END
> <VConfSearch Rank>
231

> <Conf_Id>
22

> <Delta U+W>
0.731

> <U+W>
-11.047

> <U>
47.078

> <W>
-58.125

> <W(PB)>
-60.031

> <W(SA)>
1.906

> <Valence>
2.039

> <Coulomb>
44.655

> <VdW>
0.383

> <VdW6>
-4.913

> <VdW12>
5.296

> <Bond>
0.159

> <Angle>
0.856

> <Pdih>
1.024

> <Idih>
0.000

> <Tether>
0.000

$$$$
VeraChem MOL file


 20 19  0  0  0  0  0  0  0  0999 V2000     
   22.3899   18.9700   20.8918 N   0  3  0  0  0  0  0  0  0  0  0  0
   22.9526   19.7734   21.1890 H   0  0  0  0  0  0  0  0  0  0  0  0
   22.9392   18.1278   21.0902 H   0  0  0  0  0  0  0  0  0  0  0  0
   22.2986   19.0316   19.8723 H   0  0  0  0  0  0  0  0  0  0  0  0
   21.0390   18.9398   21.5778 C   0  0  0  0  0  0  0  0  0  0  0  0
   20.4847   18.0782   21.1958 H   0  0  0  0  0  0  0  0  0  0  0  0
   20.5041   19.8498   21.2969 H   0  0  0  0  0  0  0  0  0  0  0  0
   21.1418   18.8530   23.1110 C   0  0  0  0  0  0  0  0  0  0  0  0
   21.7826   18.0009   23.3741 H   0  0  0  0  0  0  0  0  0  0  0  0
   21.6456   19.7499   23.4949 H   0  0  0  0  0  0  0  0  0  0  0  0
   19.7765   18.6781   23.8233 C   0  0  0  0  0  0  0  0  0  0  0  0
   19.9790   18.5366   24.8940 H   0  0  0  0  0  0  0  0  0  0  0  0
   19.2904   17.7513   23.4884 H   0  0  0  0  0  0  0  0  0  0  0  0
   18.8038   19.8768   23.6743 C   0  0  0  0  0  0  0  0  0  0  0  0
   18.1512   19.9031   24.5583 H   0  0  0  0  0  0  0  0  0  0  0  0
   19.3615   20.8238   23.6831 H   0  0  0  0  0  0  0  0  0  0  0  0
   17.8994   19.7985   22.4218 C   0  0  0  0  0  0  0  0  0  0  0  0
   18.4723   19.8596   21.4907 H   0  0  0  0  0  0  0  0  0  0  0  0
   17.3259   18.8626   22.4082 H   0  0  0  0  0  0  0  0  0  0  0  0
   17.1803   20.6278   22.4180 H   0  0  0  0  0  0  0  0  0  0  0  0
  1  2  1  0  0  0  0
  1  3  1  0  0  0  0
  1  4  1  0  0  0  0
  1  5  1  0  0  0  0
  5  6  1  0  0  0  0
  5  7  1  0  0  0  0
  5  8  1  0  0  0  0
  8  9  1  0  0  0  0
  8 10  1  0  0  0  0
  8 11  1  0  0  0  0
 11 12  1  0  0  0  0
 11 13  1  0  0  0  0
 11 14  1  0  0  0  0
 14 15  1  0  0  0  0
 14 16  1  0  0  0  0
 14 17  1  0  0  0  0
 17 18  1  0  0  0  0
 17 19  1  0  0  0  0
 17 20  1  0  0  0  0
M  END
> <VConfSearch Rank>
232

> <Conf_Id>
61

> <Delta U+W>
2.669

> <U+W>
-9.108

> <U>
48.916

> <W>
-58.025

> <W(PB)>
-59.935

> <W(SA)>
1.911

> <Valence>
3.785

> <Coulomb>
44.716

> <VdW>
0.415

> <VdW6>
-4.836

> <VdW12>
5.251

> <Bond>
0.175

> <Angle>
1.195

> <Pdih>
2.415

> <Idih>
0.000

> <Tether>
0.000

$$$$
VeraChem MOL file


 20 19  0  0  0  0  0  0  0  0999 V2000     
   19.8935   18.3391   20.2558 N   0  3  0  0  0  0  0  0  0  0  0  0
   19.5584   18.5978   19.3217 H   0  0  0  0  0  0  0  0  0  0  0  0
   20.1716   17.3539   20.2086 H   0  0  0  0  0  0  0  0  0  0  0  0
   19.0920   18.3968   20.8892 H   0  0  0  0  0  0  0  0  0  0  0  0
   21.0383   19.2258   20.7073 C   0  0  0  0  0  0  0  0  0  0  0  0
   20.7038   20.2664   20.6833 H   0  0  0  0  0  0  0  0  0  0  0  0
   21.8386   19.1112   19.9712 H   0  0  0  0  0  0  0  0  0  0  0  0
   21.5928   18.8857   22.1067 C   0  0  0  0  0  0  0  0  0  0  0  0
   21.6757   17.7971   22.2246 H   0  0  0  0  0  0  0  0  0  0  0  0
   22.6188   19.2731   22.1621 H   0  0  0  0  0  0  0  0  0  0  0  0
   20.7907   19.4974   23.2842 C   0  0  0  0  0  0  0  0  0  0  0  0
   20.7671   20.5912   23.1820 H   0  0  0  0  0  0  0  0  0  0  0  0
   21.3374   19.2895   24.2144 H   0  0  0  0  0  0  0  0  0  0  0  0
   19.3466   18.9612   23.4235 C   0  0  0  0  0  0  0  0  0  0  0  0
   18.7398   19.2888   22.5701 H   0  0  0  0  0  0  0  0  0  0  0  0
   19.3536   17.8622   23.4180 H   0  0  0  0  0  0  0  0  0  0  0  0
   18.6778   19.4603   24.7222 C   0  0  0  0  0  0  0  0  0  0  0  0
   17.6513   19.0793   24.8011 H   0  0  0  0  0  0  0  0  0  0  0  0
   19.2309   19.1212   25.6078 H   0  0  0  0  0  0  0  0  0  0  0  0
   18.6326   20.5570   24.7468 H   0  0  0  0  0  0  0  0  0  0  0  0
  1  2  1  0  0  0  0
  1  3  1  0  0  0  0
  1  4  1  0  0  0  0
  1  5  1  0  0  0  0
  5  6  1  0  0  0  0
  5  7  1  0  0  0  0
  5  8  1  0  0  0  0
  8  9  1  0  0  0  0
  8 10  1  0  0  0  0
  8 11  1  0  0  0  0
 11 12  1  0  0  0  0
 11 13  1  0  0  0  0
 11 14  1  0  0  0  0
 14 15  1  0  0  0  0
 14 16  1  0  0  0  0
 14 17  1  0  0  0  0
 17 18  1  0  0  0  0
 17 19  1  0  0  0  0
 17 20  1  0  0  0  0
M  END
> <VConfSearch Rank>
233

> <Conf_Id>
69

> <Delta U+W>
2.811

> <U+W>
-8.967

> <U>
49.216

> <W>
-58.183

> <W(PB)>
-60.064

> <W(SA)>
1.881

> <Valence>
2.929

> <Coulomb>
46.006

> <VdW>
0.281

> <VdW6>
-4.909

> <VdW12>
5.190

> <Bond>
0.156

> <Angle>
0.974

> <Pdih>
1.799

> <Idih>
0.000

> <Tether>
0.000

$$$$
VeraChem MOL file


 20 19  0  0  0  0  0  0  0  0999 V2000     
   20.9612   21.2745   22.6525 N   0  3  0  0  0  0  0  0  0  0  0  0
   21.4767   20.5308   22.1749 H   0  0  0  0  0  0  0  0  0  0  0  0
   20.5517   21.8723   21.9278 H   0  0  0  0  0  0  0  0  0  0  0  0
   21.6506   21.8453   23.1532 H   0  0  0  0  0  0  0  0  0  0  0  0
   19.9041   20.7209   23.5888 C   0  0  0  0  0  0  0  0  0  0  0  0
   19.4168   21.5785   24.0606 H   0  0  0  0  0  0  0  0  0  0  0  0
   20.4006   20.1416   24.3718 H   0  0  0  0  0  0  0  0  0  0  0  0
   18.8315   19.8542   22.8960 C   0  0  0  0  0  0  0  0  0  0  0  0
   17.9391   19.8533   23.5360 H   0  0  0  0  0  0  0  0  0  0  0  0
   18.5231   20.3207   21.9510 H   0  0  0  0  0  0  0  0  0  0  0  0
   19.2477   18.3794   22.6603 C   0  0  0  0  0  0  0  0  0  0  0  0
   18.3747   17.8358   22.2733 H   0  0  0  0  0  0  0  0  0  0  0  0
   19.4968   17.9111   23.6226 H   0  0  0  0  0  0  0  0  0  0  0  0
   20.4269   18.1952   21.6765 C   0  0  0  0  0  0  0  0  0  0  0  0
   20.2308   18.7519   20.7494 H   0  0  0  0  0  0  0  0  0  0  0  0
   21.3480   18.6008   22.1133 H   0  0  0  0  0  0  0  0  0  0  0  0
   20.6576   16.7067   21.3383 C   0  0  0  0  0  0  0  0  0  0  0  0
   19.7720   16.2675   20.8608 H   0  0  0  0  0  0  0  0  0  0  0  0
   21.5030   16.5925   20.6474 H   0  0  0  0  0  0  0  0  0  0  0  0
   20.8813   16.1264   22.2430 H   0  0  0  0  0  0  0  0  0  0  0  0
  1  2  1  0  0  0  0
  1  3  1  0  0  0  0
  1  4  1  0  0  0  0
  1  5  1  0  0  0  0
  5  6  1  0  0  0  0
  5  7  1  0  0  0  0
  5  8  1  0  0  0  0
  8  9  1  0  0  0  0
  8 10  1  0  0  0  0
  8 11  1  0  0  0  0
 11 12  1  0  0  0  0
 11 13  1  0  0  0  0
 11 14  1  0  0  0  0
 14 15  1  0  0  0  0
 14 16  1  0  0  0  0
 14 17  1  0  0  0  0
 17 18  1  0  0  0  0
 17 19  1  0  0  0  0
 17 20  1  0  0  0  0
M  END
> <VConfSearch Rank>
234

> <Conf_Id>
26

> <Delta U+W>
2.809

> <U+W>
-8.969

> <U>
49.216

> <W>
-58.185

> <W(PB)>
-60.088

> <W(SA)>
1.903

> <Valence>
2.929

> <Coulomb>
46.006

> <VdW>
0.281

> <VdW6>
-4.909

> <VdW12>
5.190

> <Bond>
0.156

> <Angle>
0.974

> <Pdih>
1.799

> <Idih>
0.000

> <Tether>
0.000

$$$$
VeraChem MOL file


 20 19  0  0  0  0  0  0  0  0999 V2000     
   18.6239   17.3208   22.0706 N   0  3  0  0  0  0  0  0  0  0  0  0
   19.5768   16.9651   21.9504 H   0  0  0  0  0  0  0  0  0  0  0  0
   18.2287   16.8558   22.8937 H   0  0  0  0  0  0  0  0  0  0  0  0
   18.0807   17.0055   21.2601 H   0  0  0  0  0  0  0  0  0  0  0  0
   18.6022   18.8304   22.2112 C   0  0  0  0  0  0  0  0  0  0  0  0
   17.5581   19.1413   22.3038 H   0  0  0  0  0  0  0  0  0  0  0  0
   19.0044   19.2633   21.2915 H   0  0  0  0  0  0  0  0  0  0  0  0
   19.4007   19.3513   23.4234 C   0  0  0  0  0  0  0  0  0  0  0  0
   19.2686   20.4387   23.4931 H   0  0  0  0  0  0  0  0  0  0  0  0
   18.9675   18.9376   24.3436 H   0  0  0  0  0  0  0  0  0  0  0  0
   20.9139   19.0127   23.3744 C   0  0  0  0  0  0  0  0  0  0  0  0
   21.0465   17.9266   23.4696 H   0  0  0  0  0  0  0  0  0  0  0  0
   21.4027   19.4497   24.2560 H   0  0  0  0  0  0  0  0  0  0  0  0
   21.6479   19.4981   22.0982 C   0  0  0  0  0  0  0  0  0  0  0  0
   22.7004   19.1876   22.1595 H   0  0  0  0  0  0  0  0  0  0  0  0
   21.2376   18.9987   21.2101 H   0  0  0  0  0  0  0  0  0  0  0  0
   21.5918   21.0304   21.9042 C   0  0  0  0  0  0  0  0  0  0  0  0
   21.9816   21.5546   22.7863 H   0  0  0  0  0  0  0  0  0  0  0  0
   22.1984   21.3311   21.0401 H   0  0  0  0  0  0  0  0  0  0  0  0
   20.5664   21.3763   21.7237 H   0  0  0  0  0  0  0  0  0  0  0  0
  1  2  1  0  0  0  0
  1  3  1  0  0  0  0
  1  4  1  0  0  0  0
  1  5  1  0  0  0  0
  5  6  1  0  0  0  0
  5  7  1  0  0  0  0
  5  8  1  0  0  0  0
  8  9  1  0  0  0  0
  8 10  1  0  0  0  0
  8 11  1  0  0  0  0
 11 12  1  0  0  0  0
 11 13  1  0  0  0  0
 11 14  1  0  0  0  0
 14 15  1  0  0  0  0
 14 16  1  0  0  0  0
 14 17  1  0  0  0  0
 17 18  1  0  0  0  0
 17 19  1  0  0  0  0
 17 20  1  0  0  0  0
M  END
> <VConfSearch Rank>
235

> <Conf_Id>
2

> <Delta U+W>
0.994

> <U+W>
-10.784

> <U>
47.562

> <W>
-58.346

> <W(PB)>
-60.221

> <W(SA)>
1.875

> <Valence>
2.149

> <Coulomb>
45.034

> <VdW>
0.378

> <VdW6>
-5.599

> <VdW12>
5.977

> <Bond>
0.185

> <Angle>
0.935

> <Pdih>
1.028

> <Idih>
0.000

> <Tether>
0.000

$$$$
VeraChem MOL file


 20 19  0  0  0  0  0  0  0  0999 V2000     
   20.7655   19.2225   20.1216 N   0  3  0  0  0  0  0  0  0  0  0  0
   20.1044   18.8264   19.4462 H   0  0  0  0  0  0  0  0  0  0  0  0
   20.4040   20.1406   20.3961 H   0  0  0  0  0  0  0  0  0  0  0  0
   21.6448   19.3833   19.6193 H   0  0  0  0  0  0  0  0  0  0  0  0
   20.9588   18.3143   21.3203 C   0  0  0  0  0  0  0  0  0  0  0  0
   21.6961   18.7768   21.9817 H   0  0  0  0  0  0  0  0  0  0  0  0
   21.3733   17.3693   20.9588 H   0  0  0  0  0  0  0  0  0  0  0  0
   19.6596   18.0369   22.1035 C   0  0  0  0  0  0  0  0  0  0  0  0
   18.9386   17.5419   21.4395 H   0  0  0  0  0  0  0  0  0  0  0  0
   19.8751   17.3155   22.9020 H   0  0  0  0  0  0  0  0  0  0  0  0
   19.0063   19.3062   22.7109 C   0  0  0  0  0  0  0  0  0  0  0  0
   18.1115   19.0080   23.2745 H   0  0  0  0  0  0  0  0  0  0  0  0
   18.6443   19.9522   21.8998 H   0  0  0  0  0  0  0  0  0  0  0  0
   19.9329   20.1348   23.6371 C   0  0  0  0  0  0  0  0  0  0  0  0
   20.7880   20.5254   23.0689 H   0  0  0  0  0  0  0  0  0  0  0  0
   19.3785   21.0153   23.9909 H   0  0  0  0  0  0  0  0  0  0  0  0
   20.4424   19.3423   24.8623 C   0  0  0  0  0  0  0  0  0  0  0  0
   21.0984   18.5156   24.5628 H   0  0  0  0  0  0  0  0  0  0  0  0
   21.0187   19.9955   25.5302 H   0  0  0  0  0  0  0  0  0  0  0  0
   19.6062   18.9265   25.4391 H   0  0  0  0  0  0  0  0  0  0  0  0
  1  2  1  0  0  0  0
  1  3  1  0  0  0  0
  1  4  1  0  0  0  0
  1  5  1  0  0  0  0
  5  6  1  0  0  0  0
  5  7  1  0  0  0  0
  5  8  1  0  0  0  0
  8  9  1  0  0  0  0
  8 10  1  0  0  0  0
  8 11  1  0  0  0  0
 11 12  1  0  0  0  0
 11 13  1  0  0  0  0
 11 14  1  0  0  0  0
 14 15  1  0  0  0  0
 14 16  1  0  0  0  0
 14 17  1  0  0  0  0
 17 18  1  0  0  0  0
 17 19  1  0  0  0  0
 17 20  1  0  0  0  0
M  END
> <VConfSearch Rank>
236

> <Conf_Id>
1

> <Delta U+W>
1.032

> <U+W>
-10.746

> <U>
47.562

> <W>
-58.308

> <W(PB)>
-60.184

> <W(SA)>
1.877

> <Valence>
2.149

> <Coulomb>
45.035

> <VdW>
0.378

> <VdW6>
-5.599

> <VdW12>
5.978

> <Bond>
0.185

> <Angle>
0.935

> <Pdih>
1.028

> <Idih>
0.000

> <Tether>
0.000

$$$$
VeraChem MOL file


 20 19  0  0  0  0  0  0  0  0999 V2000     
   19.1744   19.2337   20.4100 N   0  3  0  0  0  0  0  0  0  0  0  0
   18.6161   20.0635   20.1870 H   0  0  0  0  0  0  0  0  0  0  0  0
   20.1581   19.4864   20.2791 H   0  0  0  0  0  0  0  0  0  0  0  0
   18.9508   18.5253   19.7032 H   0  0  0  0  0  0  0  0  0  0  0  0
   18.9035   18.7320   21.8152 C   0  0  0  0  0  0  0  0  0  0  0  0
   19.5039   17.8348   21.9734 H   0  0  0  0  0  0  0  0  0  0  0  0
   17.8498   18.4441   21.8636 H   0  0  0  0  0  0  0  0  0  0  0  0
   19.1942   19.7741   22.9162 C   0  0  0  0  0  0  0  0  0  0  0  0
   18.5799   20.6619   22.7154 H   0  0  0  0  0  0  0  0  0  0  0  0
   18.8522   19.3852   23.8844 H   0  0  0  0  0  0  0  0  0  0  0  0
   20.6812   20.2069   23.0250 C   0  0  0  0  0  0  0  0  0  0  0  0
   20.7095   21.1966   23.5015 H   0  0  0  0  0  0  0  0  0  0  0  0
   21.1168   20.3505   22.0278 H   0  0  0  0  0  0  0  0  0  0  0  0
   21.5801   19.2631   23.8648 C   0  0  0  0  0  0  0  0  0  0  0  0
   22.5768   19.7189   23.9459 H   0  0  0  0  0  0  0  0  0  0  0  0
   21.1927   19.1985   24.8912 H   0  0  0  0  0  0  0  0  0  0  0  0
   21.7374   17.8401   23.2847 C   0  0  0  0  0  0  0  0  0  0  0  0
   22.0138   17.8703   22.2229 H   0  0  0  0  0  0  0  0  0  0  0  0
   22.5249   17.2944   23.8205 H   0  0  0  0  0  0  0  0  0  0  0  0
   20.8131   17.2604   23.3923 H   0  0  0  0  0  0  0  0  0  0  0  0
  1  2  1  0  0  0  0
  1  3  1  0  0  0  0
  1  4  1  0  0  0  0
  1  5  1  0  0  0  0
  5  6  1  0  0  0  0
  5  7  1  0  0  0  0
  5  8  1  0  0  0  0
  8  9  1  0  0  0  0
  8 10  1  0  0  0  0
  8 11  1  0  0  0  0
 11 12  1  0  0  0  0
 11 13  1  0  0  0  0
 11 14  1  0  0  0  0
 14 15  1  0  0  0  0
 14 16  1  0  0  0  0
 14 17  1  0  0  0  0
 17 18  1  0  0  0  0
 17 19  1  0  0  0  0
 17 20  1  0  0  0  0
M  END
> <VConfSearch Rank>
237

> <Conf_Id>
80

> <Delta U+W>
2.920

> <U+W>
-8.857

> <U>
49.434

> <W>
-58.292

> <W(PB)>
-60.170

> <W(SA)>
1.879

> <Valence>
3.798

> <Coulomb>
45.253

> <VdW>
0.384

> <VdW6>
-5.595

> <VdW12>
5.979

> <Bond>
0.198

> <Angle>
1.368

> <Pdih>
2.231

> <Idih>
0.000

> <Tether>
0.000

$$$$
VeraChem MOL file


 20 19  0  0  0  0  0  0  0  0999 V2000     
   18.8499   17.9771   21.0240 N   0  3  0  0  0  0  0  0  0  0  0  0
   18.1405   18.4725   20.4750 H   0  0  0  0  0  0  0  0  0  0  0  0
   18.9347   17.0374   20.6226 H   0  0  0  0  0  0  0  0  0  0  0  0
   18.4763   17.8650   21.9709 H   0  0  0  0  0  0  0  0  0  0  0  0
   20.1771   18.7108   21.0249 C   0  0  0  0  0  0  0  0  0  0  0  0
   20.5296   18.7530   19.9908 H   0  0  0  0  0  0  0  0  0  0  0  0
   20.8897   18.1157   21.5981 H   0  0  0  0  0  0  0  0  0  0  0  0
   20.0965   20.1447   21.5907 C   0  0  0  0  0  0  0  0  0  0  0  0
   21.0589   20.6506   21.4375 H   0  0  0  0  0  0  0  0  0  0  0  0
   19.3644   20.7053   20.9944 H   0  0  0  0  0  0  0  0  0  0  0  0
   19.6957   20.2309   23.0881 C   0  0  0  0  0  0  0  0  0  0  0  0
   18.8874   19.5235   23.3141 H   0  0  0  0  0  0  0  0  0  0  0  0
   19.2693   21.2280   23.2653 H   0  0  0  0  0  0  0  0  0  0  0  0
   20.8618   20.0410   24.0921 C   0  0  0  0  0  0  0  0  0  0  0  0
   21.6256   20.8130   23.9234 H   0  0  0  0  0  0  0  0  0  0  0  0
   20.4749   20.2149   25.1060 H   0  0  0  0  0  0  0  0  0  0  0  0
   21.5240   18.6460   24.0526 C   0  0  0  0  0  0  0  0  0  0  0  0
   22.1203   18.5124   23.1424 H   0  0  0  0  0  0  0  0  0  0  0  0
   22.2041   18.5221   24.9053 H   0  0  0  0  0  0  0  0  0  0  0  0
   20.7737   17.8465   24.1037 H   0  0  0  0  0  0  0  0  0  0  0  0
  1  2  1  0  0  0  0
  1  3  1  0  0  0  0
  1  4  1  0  0  0  0
  1  5  1  0  0  0  0
  5  6  1  0  0  0  0
  5  7  1  0  0  0  0
  5  8  1  0  0  0  0
  8  9  1  0  0  0  0
  8 10  1  0  0  0  0
  8 11  1  0  0  0  0
 11 12  1  0  0  0  0
 11 13  1  0  0  0  0
 11 14  1  0  0  0  0
 14 15  1  0  0  0  0
 14 16  1  0  0  0  0
 14 17  1  0  0  0  0
 17 18  1  0  0  0  0
 17 19  1  0  0  0  0
 17 20  1  0  0  0  0
M  END
> <VConfSearch Rank>
238

> <Conf_Id>
65

> <Delta U+W>
2.949

> <U+W>
-8.829

> <U>
49.435

> <W>
-58.263

> <W(PB)>
-60.125

> <W(SA)>
1.862

> <Valence>
3.797

> <Coulomb>
45.253

> <VdW>
0.384

> <VdW6>
-5.596

> <VdW12>
5.980

> <Bond>
0.198

> <Angle>
1.369

> <Pdih>
2.230

> <Idih>
0.000

> <Tether>
0.000

$$$$
VeraChem MOL file


 20 19  0  0  0  0  0  0  0  0999 V2000     
   19.3134   17.4790   22.0249 N   0  3  0  0  0  0  0  0  0  0  0  0
   19.2938   16.8262   21.2342 H   0  0  0  0  0  0  0  0  0  0  0  0
   20.2899   17.5723   22.3204 H   0  0  0  0  0  0  0  0  0  0  0  0
   18.8036   17.0316   22.7934 H   0  0  0  0  0  0  0  0  0  0  0  0
   18.7148   18.8238   21.6606 C   0  0  0  0  0  0  0  0  0  0  0  0
   17.6793   18.6418   21.3604 H   0  0  0  0  0  0  0  0  0  0  0  0
   19.2526   19.2248   20.7974 H   0  0  0  0  0  0  0  0  0  0  0  0
   18.7322   19.8500   22.8117 C   0  0  0  0  0  0  0  0  0  0  0  0
   17.9457   20.5896   22.6111 H   0  0  0  0  0  0  0  0  0  0  0  0
   18.4473   19.3591   23.7517 H   0  0  0  0  0  0  0  0  0  0  0  0
   20.0691   20.6181   22.9927 C   0  0  0  0  0  0  0  0  0  0  0  0
   19.9220   21.3464   23.8023 H   0  0  0  0  0  0  0  0  0  0  0  0
   20.2817   21.2162   22.0957 H   0  0  0  0  0  0  0  0  0  0  0  0
   21.2970   19.7431   23.3519 C   0  0  0  0  0  0  0  0  0  0  0  0
   21.9405   20.3090   24.0403 H   0  0  0  0  0  0  0  0  0  0  0  0
   20.9830   18.8501   23.9088 H   0  0  0  0  0  0  0  0  0  0  0  0
   22.1488   19.3560   22.1196 C   0  0  0  0  0  0  0  0  0  0  0  0
   21.5622   18.8469   21.3474 H   0  0  0  0  0  0  0  0  0  0  0  0
   22.5913   20.2497   21.6603 H   0  0  0  0  0  0  0  0  0  0  0  0
   22.9732   18.6927   22.4120 H   0  0  0  0  0  0  0  0  0  0  0  0
  1  2  1  0  0  0  0
  1  3  1  0  0  0  0
  1  4  1  0  0  0  0
  1  5  1  0  0  0  0
  5  6  1  0  0  0  0
  5  7  1  0  0  0  0
  5  8  1  0  0  0  0
  8  9  1  0  0  0  0
  8 10  1  0  0  0  0
  8 11  1  0  0  0  0
 11 12  1  0  0  0  0
 11 13  1  0  0  0  0
 11 14  1  0  0  0  0
 14 15  1  0  0  0  0
 14 16  1  0  0  0  0
 14 17  1  0  0  0  0
 17 18  1  0  0  0  0
 17 19  1  0  0  0  0
 17 20  1  0  0  0  0
M  END
> <VConfSearch Rank>
239

> <Conf_Id>
77

> <Delta U+W>
5.366

> <U+W>
-6.412

> <U>
51.542

> <W>
-57.954

> <W(PB)>
-59.811

> <W(SA)>
1.857

> <Valence>
5.347

> <Coulomb>
45.870

> <VdW>
0.325

> <VdW6>
-6.161

> <VdW12>
6.486

> <Bond>
0.201

> <Angle>
1.484

> <Pdih>
3.662

> <Idih>
0.000

> <Tether>
0.000

$$$$
VeraChem MOL file


 20 19  0  0  0  0  0  0  0  0999 V2000     
   18.7816   19.1148   23.8194 N   0  3  0  0  0  0  0  0  0  0  0  0
   18.8781   18.4478   24.5915 H   0  0  0  0  0  0  0  0  0  0  0  0
   19.5973   19.7342   23.8478 H   0  0  0  0  0  0  0  0  0  0  0  0
   17.9552   19.6874   24.0214 H   0  0  0  0  0  0  0  0  0  0  0  0
   18.6670   18.4124   22.4804 C   0  0  0  0  0  0  0  0  0  0  0  0
   18.5009   19.1633   21.7034 H   0  0  0  0  0  0  0  0  0  0  0  0
   17.7809   17.7736   22.5296 H   0  0  0  0  0  0  0  0  0  0  0  0
   19.8917   17.5473   22.1196 C   0  0  0  0  0  0  0  0  0  0  0  0
   20.2270   16.9903   23.0046 H   0  0  0  0  0  0  0  0  0  0  0  0
   19.5631   16.7889   21.3967 H   0  0  0  0  0  0  0  0  0  0  0  0
   21.0828   18.3176   21.4889 C   0  0  0  0  0  0  0  0  0  0  0  0
   20.7763   18.7624   20.5320 H   0  0  0  0  0  0  0  0  0  0  0  0
   21.8542   17.5776   21.2343 H   0  0  0  0  0  0  0  0  0  0  0  0
   21.7326   19.3960   22.3929 C   0  0  0  0  0  0  0  0  0  0  0  0
   21.6244   19.1260   23.4519 H   0  0  0  0  0  0  0  0  0  0  0  0
   22.8147   19.4081   22.2005 H   0  0  0  0  0  0  0  0  0  0  0  0
   21.1895   20.8201   22.1264 C   0  0  0  0  0  0  0  0  0  0  0  0
   21.6350   21.5410   22.8243 H   0  0  0  0  0  0  0  0  0  0  0  0
   21.4431   21.1457   21.1090 H   0  0  0  0  0  0  0  0  0  0  0  0
   20.1005   20.8795   22.2276 H   0  0  0  0  0  0  0  0  0  0  0  0
  1  2  1  0  0  0  0
  1  3  1  0  0  0  0
  1  4  1  0  0  0  0
  1  5  1  0  0  0  0
  5  6  1  0  0  0  0
  5  7  1  0  0  0  0
  5  8  1  0  0  0  0
  8  9  1  0  0  0  0
  8 10  1  0  0  0  0
  8 11  1  0  0  0  0
 11 12  1  0  0  0  0
 11 13  1  0  0  0  0
 11 14  1  0  0  0  0
 14 15  1  0  0  0  0
 14 16  1  0  0  0  0
 14 17  1  0  0  0  0
 17 18  1  0  0  0  0
 17 19  1  0  0  0  0
 17 20  1  0  0  0  0
M  END
> <VConfSearch Rank>
240

> <Conf_Id>
67

> <Delta U+W>
5.353

> <U+W>
-6.425

> <U>
51.541

> <W>
-57.966

> <W(PB)>
-59.821

> <W(SA)>
1.855

> <Valence>
5.347

> <Coulomb>
45.870

> <VdW>
0.325

> <VdW6>
-6.161

> <VdW12>
6.486

> <Bond>
0.201

> <Angle>
1.485

> <Pdih>
3.662

> <Idih>
0.000

> <Tether>
0.000

$$$$
VeraChem MOL file


 20 19  0  0  0  0  0  0  0  0999 V2000     
   18.4727   17.7340   24.8271 N   0  3  0  0  0  0  0  0  0  0  0  0
   17.5368   18.0261   24.5286 H   0  0  0  0  0  0  0  0  0  0  0  0
   18.3766   16.7963   25.2310 H   0  0  0  0  0  0  0  0  0  0  0  0
   18.7542   18.3583   25.5896 H   0  0  0  0  0  0  0  0  0  0  0  0
   19.4650   17.7549   23.6820 C   0  0  0  0  0  0  0  0  0  0  0  0
   19.1193   17.0478   22.9229 H   0  0  0  0  0  0  0  0  0  0  0  0
   20.4281   17.4051   24.0635 H   0  0  0  0  0  0  0  0  0  0  0  0
   19.6329   19.1494   23.0524 C   0  0  0  0  0  0  0  0  0  0  0  0
   18.6605   19.5035   22.6850 H   0  0  0  0  0  0  0  0  0  0  0  0
   19.9647   19.8595   23.8217 H   0  0  0  0  0  0  0  0  0  0  0  0
   20.6513   19.1271   21.8909 C   0  0  0  0  0  0  0  0  0  0  0  0
   20.3189   18.4118   21.1256 H   0  0  0  0  0  0  0  0  0  0  0  0
   21.6216   18.7675   22.2609 H   0  0  0  0  0  0  0  0  0  0  0  0
   20.8280   20.5223   21.2509 C   0  0  0  0  0  0  0  0  0  0  0  0
   19.8600   20.8850   20.8775 H   0  0  0  0  0  0  0  0  0  0  0  0
   21.1626   21.2406   22.0126 H   0  0  0  0  0  0  0  0  0  0  0  0
   21.8462   20.4952   20.0909 C   0  0  0  0  0  0  0  0  0  0  0  0
   21.5217   19.8106   19.2964 H   0  0  0  0  0  0  0  0  0  0  0  0
   21.9580   21.4941   19.6496 H   0  0  0  0  0  0  0  0  0  0  0  0
   22.8346   20.1692   20.4403 H   0  0  0  0  0  0  0  0  0  0  0  0
  1  2  1  0  0  0  0
  1  3  1  0  0  0  0
  1  4  1  0  0  0  0
  1  5  1  0  0  0  0
  5  6  1  0  0  0  0
  5  7  1  0  0  0  0
  5  8  1  0  0  0  0
  8  9  1  0  0  0  0
  8 10  1  0  0  0  0
  8 11  1  0  0  0  0
 11 12  1  0  0  0  0
 11 13  1  0  0  0  0
 11 14  1  0  0  0  0
 14 15  1  0  0  0  0
 14 16  1  0  0  0  0
 14 17  1  0  0  0  0
 17 18  1  0  0  0  0
 17 19  1  0  0  0  0
 17 20  1  0  0  0  0
M  END
> <VConfSearch Rank>
241

> <Conf_Id>
72

> <Delta U+W>
0.000

> <U+W>
-11.778

> <U>
45.772

> <W>
-57.550

> <W(PB)>
-59.511

> <W(SA)>
1.961

> <Valence>
1.299

> <Coulomb>
44.177

> <VdW>
0.297

> <VdW6>
-3.490

> <VdW12>
3.786

> <Bond>
0.096

> <Angle>
0.381

> <Pdih>
0.822

> <Idih>
0.000

> <Tether>
0.000

$$$$
VeraChem MOL file


 20 19  0  0  0  0  0  0  0  0999 V2000     
   21.0189   20.5163   19.9534 N   0  3  0  0  0  0  0  0  0  0  0  0
   20.0872   20.4223   19.5369 H   0  0  0  0  0  0  0  0  0  0  0  0
   21.0894   21.4700   20.3220 H   0  0  0  0  0  0  0  0  0  0  0  0
   21.6959   20.4432   19.1866 H   0  0  0  0  0  0  0  0  0  0  0  0
   21.2681   19.4747   21.0255 C   0  0  0  0  0  0  0  0  0  0  0  0
   22.2852   19.6143   21.4016 H   0  0  0  0  0  0  0  0  0  0  0  0
   21.2074   18.4880   20.5583 H   0  0  0  0  0  0  0  0  0  0  0  0
   20.2685   19.5568   22.1932 C   0  0  0  0  0  0  0  0  0  0  0  0
   20.3215   20.5543   22.6492 H   0  0  0  0  0  0  0  0  0  0  0  0
   19.2507   19.4332   21.8021 H   0  0  0  0  0  0  0  0  0  0  0  0
   20.5614   18.4787   23.2632 C   0  0  0  0  0  0  0  0  0  0  0  0
   21.6077   18.5707   23.5866 H   0  0  0  0  0  0  0  0  0  0  0  0
   20.4631   17.4789   22.8179 H   0  0  0  0  0  0  0  0  0  0  0  0
   19.6498   18.5820   24.5102 C   0  0  0  0  0  0  0  0  0  0  0  0
   19.9918   17.8531   25.2583 H   0  0  0  0  0  0  0  0  0  0  0  0
   19.7631   19.5725   24.9727 H   0  0  0  0  0  0  0  0  0  0  0  0
   18.1576   18.3187   24.2044 C   0  0  0  0  0  0  0  0  0  0  0  0
   18.0201   17.3456   23.7153 H   0  0  0  0  0  0  0  0  0  0  0  0
   17.5706   18.3135   25.1319 H   0  0  0  0  0  0  0  0  0  0  0  0
   17.7362   19.0941   23.5527 H   0  0  0  0  0  0  0  0  0  0  0  0
  1  2  1  0  0  0  0
  1  3  1  0  0  0  0
  1  4  1  0  0  0  0
  1  5  1  0  0  0  0
  5  6  1  0  0  0  0
  5  7  1  0  0  0  0
  5  8  1  0  0  0  0
  8  9  1  0  0  0  0
  8 10  1  0  0  0  0
  8 11  1  0  0  0  0
 11 12  1  0  0  0  0
 11 13  1  0  0  0  0
 11 14  1  0  0  0  0
 14 15  1  0  0  0  0
 14 16  1  0  0  0  0
 14 17  1  0  0  0  0
 17 18  1  0  0  0  0
 17 19  1  0  0  0  0
 17 20  1  0  0  0  0
M  END
> <VConfSearch Rank>
242

> <Conf_Id>
42

> <Delta U+W>
0.508

> <U+W>
-11.270

> <U>
46.486

> <W>
-57.756

> <W(PB)>
-59.705

> <W(SA)>
1.949

> <Valence>
1.806

> <Coulomb>
44.248

> <VdW>
0.433

> <VdW6>
-4.089

> <VdW12>
4.522

> <Bond>
0.131

> <Angle>
0.628

> <Pdih>
1.047

> <Idih>
0.000

> <Tether>
0.000

$$$$
VeraChem MOL file


 20 19  0  0  0  0  0  0  0  0999 V2000     
   18.1745   16.9714   21.6194 N   0  3  0  0  0  0  0  0  0  0  0  0
   17.9588   17.3625   20.6970 H   0  0  0  0  0  0  0  0  0  0  0  0
   18.9210   16.2818   21.4871 H   0  0  0  0  0  0  0  0  0  0  0  0
   17.3432   16.4545   21.9248 H   0  0  0  0  0  0  0  0  0  0  0  0
   18.5657   18.0465   22.6132 C   0  0  0  0  0  0  0  0  0  0  0  0
   18.7514   17.5641   23.5767 H   0  0  0  0  0  0  0  0  0  0  0  0
   17.7163   18.7255   22.7274 H   0  0  0  0  0  0  0  0  0  0  0  0
   19.8112   18.8428   22.1845 C   0  0  0  0  0  0  0  0  0  0  0  0
   20.6521   18.1497   22.0557 H   0  0  0  0  0  0  0  0  0  0  0  0
   19.6261   19.3124   21.2092 H   0  0  0  0  0  0  0  0  0  0  0  0
   20.1721   19.9288   23.2253 C   0  0  0  0  0  0  0  0  0  0  0  0
   20.4024   19.4552   24.1898 H   0  0  0  0  0  0  0  0  0  0  0  0
   19.2933   20.5661   23.3968 H   0  0  0  0  0  0  0  0  0  0  0  0
   21.3561   20.8284   22.7946 C   0  0  0  0  0  0  0  0  0  0  0  0
   21.1201   21.3229   21.8419 H   0  0  0  0  0  0  0  0  0  0  0  0
   21.4766   21.6313   23.5354 H   0  0  0  0  0  0  0  0  0  0  0  0
   22.6938   20.0644   22.6663 C   0  0  0  0  0  0  0  0  0  0  0  0
   22.6623   19.3292   21.8528 H   0  0  0  0  0  0  0  0  0  0  0  0
   23.5144   20.7605   22.4493 H   0  0  0  0  0  0  0  0  0  0  0  0
   22.9389   19.5374   23.5976 H   0  0  0  0  0  0  0  0  0  0  0  0
  1  2  1  0  0  0  0
  1  3  1  0  0  0  0
  1  4  1  0  0  0  0
  1  5  1  0  0  0  0
  5  6  1  0  0  0  0
  5  7  1  0  0  0  0
  5  8  1  0  0  0  0
  8  9  1  0  0  0  0
  8 10  1  0  0  0  0
  8 11  1  0  0  0  0
 11 12  1  0  0  0  0
 11 13  1  0  0  0  0
 11 14  1  0  0  0  0
 14 15  1  0  0  0  0
 14 16  1  0  0  0  0
 14 17  1  0  0  0  0
 17 18  1  0  0  0  0
 17 19  1  0  0  0  0
 17 20  1  0  0  0  0
M  END
> <VConfSearch Rank>
243

> <Conf_Id>
41

> <Delta U+W>
0.515

> <U+W>
-11.263

> <U>
46.486

> <W>
-57.749

> <W(PB)>
-59.685

> <W(SA)>
1.936

> <Valence>
1.806

> <Coulomb>
44.248

> <VdW>
0.433

> <VdW6>
-4.089

> <VdW12>
4.522

> <Bond>
0.131

> <Angle>
0.628

> <Pdih>
1.047

> <Idih>
0.000

> <Tether>
0.000

$$$$
VeraChem MOL file


 20 19  0  0  0  0  0  0  0  0999 V2000     
   21.4308   20.9067   24.1477 N   0  3  0  0  0  0  0  0  0  0  0  0
   21.4418   21.7513   24.7291 H   0  0  0  0  0  0  0  0  0  0  0  0
   21.2248   20.1194   24.7696 H   0  0  0  0  0  0  0  0  0  0  0  0
   22.3846   20.7742   23.7971 H   0  0  0  0  0  0  0  0  0  0  0  0
   20.4237   21.0138   23.0188 C   0  0  0  0  0  0  0  0  0  0  0  0
   20.6823   21.8969   22.4281 H   0  0  0  0  0  0  0  0  0  0  0  0
   19.4360   21.1766   23.4585 H   0  0  0  0  0  0  0  0  0  0  0  0
   20.3842   19.7786   22.0975 C   0  0  0  0  0  0  0  0  0  0  0  0
   19.7177   20.0053   21.2561 H   0  0  0  0  0  0  0  0  0  0  0  0
   21.3815   19.6074   21.6712 H   0  0  0  0  0  0  0  0  0  0  0  0
   19.8915   18.5034   22.8270 C   0  0  0  0  0  0  0  0  0  0  0  0
   18.8841   18.6745   23.2312 H   0  0  0  0  0  0  0  0  0  0  0  0
   20.5404   18.3020   23.6896 H   0  0  0  0  0  0  0  0  0  0  0  0
   19.8801   17.2438   21.9268 C   0  0  0  0  0  0  0  0  0  0  0  0
   20.8888   17.0604   21.5309 H   0  0  0  0  0  0  0  0  0  0  0  0
   19.6305   16.3708   22.5461 H   0  0  0  0  0  0  0  0  0  0  0  0
   18.8705   17.3292   20.7593 C   0  0  0  0  0  0  0  0  0  0  0  0
   19.1485   18.1101   20.0408 H   0  0  0  0  0  0  0  0  0  0  0  0
   18.8342   16.3778   20.2129 H   0  0  0  0  0  0  0  0  0  0  0  0
   17.8585   17.5434   21.1266 H   0  0  0  0  0  0  0  0  0  0  0  0
  1  2  1  0  0  0  0
  1  3  1  0  0  0  0
  1  4  1  0  0  0  0
  1  5  1  0  0  0  0
  5  6  1  0  0  0  0
  5  7  1  0  0  0  0
  5  8  1  0  0  0  0
  8  9  1  0  0  0  0
  8 10  1  0  0  0  0
  8 11  1  0  0  0  0
 11 12  1  0  0  0  0
 11 13  1  0  0  0  0
 11 14  1  0  0  0  0
 14 15  1  0  0  0  0
 14 16  1  0  0  0  0
 14 17  1  0  0  0  0
 17 18  1  0  0  0  0
 17 19  1  0  0  0  0
 17 20  1  0  0  0  0
M  END
> <VConfSearch Rank>
244

> <Conf_Id>
33

> <Delta U+W>
0.703

> <U+W>
-11.075

> <U>
47.080

> <W>
-58.154

> <W(PB)>
-60.053

> <W(SA)>
1.899

> <Valence>
1.943

> <Coulomb>
44.572

> <VdW>
0.565

> <VdW6>
-4.575

> <VdW12>
5.139

> <Bond>
0.158

> <Angle>
0.700

> <Pdih>
1.085

> <Idih>
0.000

> <Tether>
0.000

$$$$
VeraChem MOL file


 20 19  0  0  0  0  0  0  0  0999 V2000     
   20.4249   20.7712   24.6693 N   0  3  0  0  0  0  0  0  0  0  0  0
   20.7032   20.9369   25.6422 H   0  0  0  0  0  0  0  0  0  0  0  0
   20.5351   21.6607   24.1725 H   0  0  0  0  0  0  0  0  0  0  0  0
   19.4245   20.5517   24.6787 H   0  0  0  0  0  0  0  0  0  0  0  0
   21.2408   19.6631   24.0317 C   0  0  0  0  0  0  0  0  0  0  0  0
   21.0973   18.7531   24.6207 H   0  0  0  0  0  0  0  0  0  0  0  0
   22.2943   19.9482   24.0983 H   0  0  0  0  0  0  0  0  0  0  0  0
   20.8795   19.3896   22.5584 C   0  0  0  0  0  0  0  0  0  0  0  0
   21.0078   20.3096   21.9729 H   0  0  0  0  0  0  0  0  0  0  0  0
   21.5995   18.6626   22.1628 H   0  0  0  0  0  0  0  0  0  0  0  0
   19.4385   18.8464   22.3864 C   0  0  0  0  0  0  0  0  0  0  0  0
   18.7246   19.5612   22.8167 H   0  0  0  0  0  0  0  0  0  0  0  0
   19.3242   17.9141   22.9568 H   0  0  0  0  0  0  0  0  0  0  0  0
   19.0446   18.6002   20.9096 C   0  0  0  0  0  0  0  0  0  0  0  0
   17.9805   18.3282   20.8697 H   0  0  0  0  0  0  0  0  0  0  0  0
   19.1441   19.5333   20.3375 H   0  0  0  0  0  0  0  0  0  0  0  0
   19.8685   17.4828   20.2295 C   0  0  0  0  0  0  0  0  0  0  0  0
   19.8110   16.5465   20.7998 H   0  0  0  0  0  0  0  0  0  0  0  0
   19.4859   17.2841   19.2200 H   0  0  0  0  0  0  0  0  0  0  0  0
   20.9247   17.7620   20.1315 H   0  0  0  0  0  0  0  0  0  0  0  0
  1  2  1  0  0  0  0
  1  3  1  0  0  0  0
  1  4  1  0  0  0  0
  1  5  1  0  0  0  0
  5  6  1  0  0  0  0
  5  7  1  0  0  0  0
  5  8  1  0  0  0  0
  8  9  1  0  0  0  0
  8 10  1  0  0  0  0
  8 11  1  0  0  0  0
 11 12  1  0  0  0  0
 11 13  1  0  0  0  0
 11 14  1  0  0  0  0
 14 15  1  0  0  0  0
 14 16  1  0  0  0  0
 14 17  1  0  0  0  0
 17 18  1  0  0  0  0
 17 19  1  0  0  0  0
 17 20  1  0  0  0  0
M  END
> <VConfSearch Rank>
245

> <Conf_Id>
24

> <Delta U+W>
0.847

> <U+W>
-10.931

> <U>
47.080

> <W>
-58.011

> <W(PB)>
-59.914

> <W(SA)>
1.903

> <Valence>
1.943

> <Coulomb>
44.572

> <VdW>
0.565

> <VdW6>
-4.575

> <VdW12>
5.140

> <Bond>
0.158

> <Angle>
0.700

> <Pdih>
1.085

> <Idih>
0.000

> <Tether>
0.000

$$$$
VeraChem MOL file


 20 19  0  0  0  0  0  0  0  0999 V2000     
   22.3588   20.8163   22.5391 N   0  3  0  0  0  0  0  0  0  0  0  0
   22.6184   21.5347   21.8551 H   0  0  0  0  0  0  0  0  0  0  0  0
   22.0181   21.3075   23.3715 H   0  0  0  0  0  0  0  0  0  0  0  0
   23.2231   20.3346   22.8063 H   0  0  0  0  0  0  0  0  0  0  0  0
   21.3249   19.8575   21.9841 C   0  0  0  0  0  0  0  0  0  0  0  0
   21.7418   19.3933   21.0863 H   0  0  0  0  0  0  0  0  0  0  0  0
   20.4474   20.4413   21.6936 H   0  0  0  0  0  0  0  0  0  0  0  0
   20.9121   18.7648   22.9881 C   0  0  0  0  0  0  0  0  0  0  0  0
   21.8064   18.2118   23.3046 H   0  0  0  0  0  0  0  0  0  0  0  0
   20.5018   19.2300   23.8935 H   0  0  0  0  0  0  0  0  0  0  0  0
   19.8889   17.7630   22.3968 C   0  0  0  0  0  0  0  0  0  0  0  0
   19.6488   17.0080   23.1581 H   0  0  0  0  0  0  0  0  0  0  0  0
   20.3620   17.2171   21.5688 H   0  0  0  0  0  0  0  0  0  0  0  0
   18.5729   18.4028   21.8847 C   0  0  0  0  0  0  0  0  0  0  0  0
   18.7823   19.0842   21.0489 H   0  0  0  0  0  0  0  0  0  0  0  0
   17.9346   17.6086   21.4728 H   0  0  0  0  0  0  0  0  0  0  0  0
   17.7866   19.1538   22.9832 C   0  0  0  0  0  0  0  0  0  0  0  0
   16.8229   19.5063   22.5933 H   0  0  0  0  0  0  0  0  0  0  0  0
   17.5825   18.4991   23.8403 H   0  0  0  0  0  0  0  0  0  0  0  0
   18.3371   20.0316   23.3438 H   0  0  0  0  0  0  0  0  0  0  0  0
  1  2  1  0  0  0  0
  1  3  1  0  0  0  0
  1  4  1  0  0  0  0
  1  5  1  0  0  0  0
  5  6  1  0  0  0  0
  5  7  1  0  0  0  0
  5  8  1  0  0  0  0
  8  9  1  0  0  0  0
  8 10  1  0  0  0  0
  8 11  1  0  0  0  0
 11 12  1  0  0  0  0
 11 13  1  0  0  0  0
 11 14  1  0  0  0  0
 14 15  1  0  0  0  0
 14 16  1  0  0  0  0
 14 17  1  0  0  0  0
 17 18  1  0  0  0  0
 17 19  1  0  0  0  0
 17 20  1  0  0  0  0
M  END
> <VConfSearch Rank>
246

> <Conf_Id>
64

> <Delta U+W>
0.707

> <U+W>
-11.070

> <U>
47.077

> <W>
-58.148

> <W(PB)>
-60.054

> <W(SA)>
1.906

> <Valence>
2.039

> <Coulomb>
44.655

> <VdW>
0.383

> <VdW6>
-4.912

> <VdW12>
5.295

> <Bond>
0.159

> <Angle>
0.856

> <Pdih>
1.024

> <Idih>
0.000

> <Tether>
0.000

$$$$
VeraChem MOL file


 20 19  0  0  0  0  0  0  0  0999 V2000     
   18.9996   16.7044   21.7605 N   0  3  0  0  0  0  0  0  0  0  0  0
   19.0105   15.9814   22.4868 H   0  0  0  0  0  0  0  0  0  0  0  0
   18.0720   17.1395   21.7826 H   0  0  0  0  0  0  0  0  0  0  0  0
   19.0804   16.2215   20.8595 H   0  0  0  0  0  0  0  0  0  0  0  0
   20.1068   17.7203   21.9564 C   0  0  0  0  0  0  0  0  0  0  0  0
   20.0531   18.4382   21.1338 H   0  0  0  0  0  0  0  0  0  0  0  0
   21.0633   17.1945   21.8923 H   0  0  0  0  0  0  0  0  0  0  0  0
   20.0142   18.4647   23.3017 C   0  0  0  0  0  0  0  0  0  0  0  0
   19.0506   18.9854   23.3709 H   0  0  0  0  0  0  0  0  0  0  0  0
   20.0271   17.7317   24.1192 H   0  0  0  0  0  0  0  0  0  0  0  0
   21.1752   19.4685   23.5126 C   0  0  0  0  0  0  0  0  0  0  0  0
   22.1217   18.9128   23.5657 H   0  0  0  0  0  0  0  0  0  0  0  0
   21.0541   19.9527   24.4914 H   0  0  0  0  0  0  0  0  0  0  0  0
   21.2986   20.5602   22.4189 C   0  0  0  0  0  0  0  0  0  0  0  0
   22.1598   21.1997   22.6580 H   0  0  0  0  0  0  0  0  0  0  0  0
   21.5260   20.1003   21.4475 H   0  0  0  0  0  0  0  0  0  0  0  0
   20.0397   21.4478   22.2918 C   0  0  0  0  0  0  0  0  0  0  0  0
   19.7788   21.9035   23.2558 H   0  0  0  0  0  0  0  0  0  0  0  0
   20.2124   22.2593   21.5730 H   0  0  0  0  0  0  0  0  0  0  0  0
   19.1752   20.8725   21.9378 H   0  0  0  0  0  0  0  0  0  0  0  0
  1  2  1  0  0  0  0
  1  3  1  0  0  0  0
  1  4  1  0  0  0  0
  1  5  1  0  0  0  0
  5  6  1  0  0  0  0
  5  7  1  0  0  0  0
  5  8  1  0  0  0  0
  8  9  1  0  0  0  0
  8 10  1  0  0  0  0
  8 11  1  0  0  0  0
 11 12  1  0  0  0  0
 11 13  1  0  0  0  0
 11 14  1  0  0  0  0
 14 15  1  0  0  0  0
 14 16  1  0  0  0  0
 14 17  1  0  0  0  0
 17 18  1  0  0  0  0
 17 19  1  0  0  0  0
 17 20  1  0  0  0  0
M  END
> <VConfSearch Rank>
247

> <Conf_Id>
22

> <Delta U+W>
0.731

> <U+W>
-11.047

> <U>
47.078

> <W>
-58.125

> <W(PB)>
-60.031

> <W(SA)>
1.906

> <Valence>
2.039

> <Coulomb>
44.655

> <VdW>
0.383

> <VdW6>
-4.913

> <VdW12>
5.296

> <Bond>
0.159

> <Angle>
0.856

> <Pdih>
1.024

> <Idih>
0.000

> <Tether>
0.000

$$$$
VeraChem MOL file


 20 19  0  0  0  0  0  0  0  0999 V2000     
   22.8804   18.7564   22.3708 N   0  3  0  0  0  0  0  0  0  0  0  0
   22.9273   17.7330   22.3954 H   0  0  0  0  0  0  0  0  0  0  0  0
   23.2934   19.0555   21.4819 H   0  0  0  0  0  0  0  0  0  0  0  0
   23.4962   19.1004   23.1151 H   0  0  0  0  0  0  0  0  0  0  0  0
   21.4613   19.2625   22.5348 C   0  0  0  0  0  0  0  0  0  0  0  0
   21.4888   20.3555   22.5269 H   0  0  0  0  0  0  0  0  0  0  0  0
   21.1018   18.9307   23.5115 H   0  0  0  0  0  0  0  0  0  0  0  0
   20.5095   18.7590   21.4351 C   0  0  0  0  0  0  0  0  0  0  0  0
   20.9455   18.9955   20.4554 H   0  0  0  0  0  0  0  0  0  0  0  0
   20.4383   17.6644   21.4864 H   0  0  0  0  0  0  0  0  0  0  0  0
   19.0896   19.3764   21.5021 C   0  0  0  0  0  0  0  0  0  0  0  0
   18.5328   19.0187   20.6248 H   0  0  0  0  0  0  0  0  0  0  0  0
   19.1457   20.4683   21.3927 H   0  0  0  0  0  0  0  0  0  0  0  0
   18.2756   19.0065   22.7693 C   0  0  0  0  0  0  0  0  0  0  0  0
   17.2072   19.0328   22.5125 H   0  0  0  0  0  0  0  0  0  0  0  0
   18.4879   17.9710   23.0701 H   0  0  0  0  0  0  0  0  0  0  0  0
   18.4989   19.9677   23.9606 C   0  0  0  0  0  0  0  0  0  0  0  0
   19.5262   19.9312   24.3375 H   0  0  0  0  0  0  0  0  0  0  0  0
   18.2765   21.0045   23.6769 H   0  0  0  0  0  0  0  0  0  0  0  0
   17.8355   19.7026   24.7940 H   0  0  0  0  0  0  0  0  0  0  0  0
  1  2  1  0  0  0  0
  1  3  1  0  0  0  0
  1  4  1  0  0  0  0
  1  5  1  0  0  0  0
  5  6  1  0  0  0  0
  5  7  1  0  0  0  0
  5  8  1  0  0  0  0
  8  9  1  0  0  0  0
  8 10  1  0  0  0  0
  8 11  1  0  0  0  0
 11 12  1  0  0  0  0
 11 13  1  0  0  0  0
 11 14  1  0  0  0  0
 14 15  1  0  0  0  0
 14 16  1  0  0  0  0
 14 17  1  0  0  0  0
 17 18  1  0  0  0  0
 17 19  1  0  0  0  0
 17 20  1  0  0  0  0
M  END
> <VConfSearch Rank>
248

> <Conf_Id>
61

> <Delta U+W>
2.669

> <U+W>
-9.108

> <U>
48.916

> <W>
-58.025

> <W(PB)>
-59.935

> <W(SA)>
1.911

> <Valence>
3.785

> <Coulomb>
44.716

> <VdW>
0.415

> <VdW6>
-4.836

> <VdW12>
5.251

> <Bond>
0.175

> <Angle>
1.195

> <Pdih>
2.415

> <Idih>
0.000

> <Tether>
0.000

$$$$
VeraChem MOL file


 20 19  0  0  0  0  0  0  0  0999 V2000     
   20.1986   20.4435   20.6045 N   0  3  0  0  0  0  0  0  0  0  0  0
   20.8017   20.8564   19.8851 H   0  0  0  0  0  0  0  0  0  0  0  0
   19.2754   20.8765   20.5018 H   0  0  0  0  0  0  0  0  0  0  0  0
   20.5700   20.7357   21.5120 H   0  0  0  0  0  0  0  0  0  0  0  0
   20.1287   18.9335   20.4798 C   0  0  0  0  0  0  0  0  0  0  0  0
   21.1436   18.5313   20.5386 H   0  0  0  0  0  0  0  0  0  0  0  0
   19.7359   18.7146   19.4831 H   0  0  0  0  0  0  0  0  0  0  0  0
   19.2319   18.2489   21.5327 C   0  0  0  0  0  0  0  0  0  0  0  0
   18.3049   18.8218   21.6675 H   0  0  0  0  0  0  0  0  0  0  0  0
   18.9270   17.2745   21.1283 H   0  0  0  0  0  0  0  0  0  0  0  0
   19.9180   18.0010   22.9008 C   0  0  0  0  0  0  0  0  0  0  0  0
   20.8112   17.3778   22.7548 H   0  0  0  0  0  0  0  0  0  0  0  0
   19.2326   17.4106   23.5246 H   0  0  0  0  0  0  0  0  0  0  0  0
   20.3064   19.2877   23.6661 C   0  0  0  0  0  0  0  0  0  0  0  0
   21.1036   19.8179   23.1301 H   0  0  0  0  0  0  0  0  0  0  0  0
   19.4424   19.9648   23.7218 H   0  0  0  0  0  0  0  0  0  0  0  0
   20.8002   18.9725   25.0943 C   0  0  0  0  0  0  0  0  0  0  0  0
   21.0807   19.8944   25.6200 H   0  0  0  0  0  0  0  0  0  0  0  0
   20.0181   18.4751   25.6826 H   0  0  0  0  0  0  0  0  0  0  0  0
   21.6802   18.3166   25.0720 H   0  0  0  0  0  0  0  0  0  0  0  0
  1  2  1  0  0  0  0
  1  3  1  0  0  0  0
  1  4  1  0  0  0  0
  1  5  1  0  0  0  0
  5  6  1  0  0  0  0
  5  7  1  0  0  0  0
  5  8  1  0  0  0  0
  8  9  1  0  0  0  0
  8 10  1  0  0  0  0
  8 11  1  0  0  0  0
 11 12  1  0  0  0  0
 11 13  1  0  0  0  0
 11 14  1  0  0  0  0
 14 15  1  0  0  0  0
 14 16  1  0  0  0  0
 14 17  1  0  0  0  0
 17 18  1  0  0  0  0
 17 19  1  0  0  0  0
 17 20  1  0  0  0  0
M  END
> <VConfSearch Rank>
249

> <Conf_Id>
69

> <Delta U+W>
2.811

> <U+W>
-8.967

> <U>
49.216

> <W>
-58.183

> <W(PB)>
-60.064

> <W(SA)>
1.881

> <Valence>
2.929

> <Coulomb>
46.006

> <VdW>
0.281

> <VdW6>
-4.909

> <VdW12>
5.190

> <Bond>
0.156

> <Angle>
0.974

> <Pdih>
1.799

> <Idih>
0.000

> <Tether>
0.000

$$$$
VeraChem MOL file


 20 19  0  0  0  0  0  0  0  0999 V2000     
   17.9681   18.7747   23.2331 N   0  3  0  0  0  0  0  0  0  0  0  0
   18.6692   19.2664   23.7932 H   0  0  0  0  0  0  0  0  0  0  0  0
   17.3397   19.4846   22.8439 H   0  0  0  0  0  0  0  0  0  0  0  0
   17.4102   18.2069   23.8796 H   0  0  0  0  0  0  0  0  0  0  0  0
   18.6025   17.9281   22.1461 C   0  0  0  0  0  0  0  0  0  0  0  0
   17.7868   17.4342   21.6111 H   0  0  0  0  0  0  0  0  0  0  0  0
   19.2137   17.1546   22.6186 H   0  0  0  0  0  0  0  0  0  0  0  0
   19.4544   18.7243   21.1352 C   0  0  0  0  0  0  0  0  0  0  0  0
   19.5157   18.1330   20.2119 H   0  0  0  0  0  0  0  0  0  0  0  0
   18.9415   19.6560   20.8620 H   0  0  0  0  0  0  0  0  0  0  0  0
   20.9017   19.0217   21.6049 C   0  0  0  0  0  0  0  0  0  0  0  0
   21.4440   19.4843   20.7686 H   0  0  0  0  0  0  0  0  0  0  0  0
   21.4190   18.0760   21.8182 H   0  0  0  0  0  0  0  0  0  0  0  0
   20.9979   19.9515   22.8372 C   0  0  0  0  0  0  0  0  0  0  0  0
   20.3931   20.8542   22.6725 H   0  0  0  0  0  0  0  0  0  0  0  0
   20.5949   19.4447   23.7231 H   0  0  0  0  0  0  0  0  0  0  0  0
   22.4576   20.3615   23.1273 C   0  0  0  0  0  0  0  0  0  0  0  0
   22.8907   20.9089   22.2800 H   0  0  0  0  0  0  0  0  0  0  0  0
   22.5095   21.0127   24.0096 H   0  0  0  0  0  0  0  0  0  0  0  0
   23.0839   19.4810   23.3214 H   0  0  0  0  0  0  0  0  0  0  0  0
  1  2  1  0  0  0  0
  1  3  1  0  0  0  0
  1  4  1  0  0  0  0
  1  5  1  0  0  0  0
  5  6  1  0  0  0  0
  5  7  1  0  0  0  0
  5  8  1  0  0  0  0
  8  9  1  0  0  0  0
  8 10  1  0  0  0  0
  8 11  1  0  0  0  0
 11 12  1  0  0  0  0
 11 13  1  0  0  0  0
 11 14  1  0  0  0  0
 14 15  1  0  0  0  0
 14 16  1  0  0  0  0
 14 17  1  0  0  0  0
 17 18  1  0  0  0  0
 17 19  1  0  0  0  0
 17 20  1  0  0  0  0
M  END
> <VConfSearch Rank>
250

> <Conf_Id>
26

> <Delta U+W>
2.809

> <U+W>
-8.969

> <U>
49.216

> <W>
-58.185

> <W(PB)>
-60.088

> <W(SA)>
1.903

> <Valence>
2.929

> <Coulomb>
46.006

> <VdW>
0.281

> <VdW6>
-4.909

> <VdW12>
5.190

> <Bond>
0.156

> <Angle>
0.974

> <Pdih>
1.799

> <Idih>
0.000

> <Tether>
0.000

$$$$
VeraChem MOL file


 20 19  0  0  0  0  0  0  0  0999 V2000     
   22.3267   18.8719   21.4943 N   0  3  0  0  0  0  0  0  0  0  0  0
   21.7618   18.0638   21.2173 H   0  0  0  0  0  0  0  0  0  0  0  0
   22.5394   19.3993   20.6419 H   0  0  0  0  0  0  0  0  0  0  0  0
   23.2170   18.5086   21.8503 H   0  0  0  0  0  0  0  0  0  0  0  0
   21.6148   19.7276   22.5239 C   0  0  0  0  0  0  0  0  0  0  0  0
   22.2842   20.5486   22.7948 H   0  0  0  0  0  0  0  0  0  0  0  0
   21.4479   19.1181   23.4158 H   0  0  0  0  0  0  0  0  0  0  0  0
   20.2725   20.3037   22.0294 C   0  0  0  0  0  0  0  0  0  0  0  0
   19.8659   20.9675   22.8031 H   0  0  0  0  0  0  0  0  0  0  0  0
   20.4557   20.9412   21.1543 H   0  0  0  0  0  0  0  0  0  0  0  0
   19.2198   19.2245   21.6633 C   0  0  0  0  0  0  0  0  0  0  0  0
   19.5622   18.6673   20.7810 H   0  0  0  0  0  0  0  0  0  0  0  0
   18.2918   19.7259   21.3557 H   0  0  0  0  0  0  0  0  0  0  0  0
   18.8975   18.2190   22.7983 C   0  0  0  0  0  0  0  0  0  0  0  0
   18.1624   17.4924   22.4248 H   0  0  0  0  0  0  0  0  0  0  0  0
   19.7925   17.6368   23.0562 H   0  0  0  0  0  0  0  0  0  0  0  0
   18.3313   18.8908   24.0699 C   0  0  0  0  0  0  0  0  0  0  0  0
   17.4440   19.4934   23.8363 H   0  0  0  0  0  0  0  0  0  0  0  0
   18.0371   18.1324   24.8069 H   0  0  0  0  0  0  0  0  0  0  0  0
   19.0743   19.5426   24.5459 H   0  0  0  0  0  0  0  0  0  0  0  0
  1  2  1  0  0  0  0
  1  3  1  0  0  0  0
  1  4  1  0  0  0  0
  1  5  1  0  0  0  0
  5  6  1  0  0  0  0
  5  7  1  0  0  0  0
  5  8  1  0  0  0  0
  8  9  1  0  0  0  0
  8 10  1  0  0  0  0
  8 11  1  0  0  0  0
 11 12  1  0  0  0  0
 11 13  1  0  0  0  0
 11 14  1  0  0  0  0
 14 15  1  0  0  0  0
 14 16  1  0  0  0  0
 14 17  1  0  0  0  0
 17 18  1  0  0  0  0
 17 19  1  0  0  0  0
 17 20  1  0  0  0  0
M  END
> <VConfSearch Rank>
251

> <Conf_Id>
2

> <Delta U+W>
0.994

> <U+W>
-10.784

> <U>
47.562

> <W>
-58.346

> <W(PB)>
-60.221

> <W(SA)>
1.875

> <Valence>
2.149

> <Coulomb>
45.034

> <VdW>
0.378

> <VdW6>
-5.599

> <VdW12>
5.977

> <Bond>
0.185

> <Angle>
0.935

> <Pdih>
1.028

> <Idih>
0.000

> <Tether>
0.000

$$$$
VeraChem MOL file


 20 19  0  0  0  0  0  0  0  0999 V2000     
   18.5403   20.3092   21.1647 N   0  3  0  0  0  0  0  0  0  0  0  0
   18.8804   20.8121   20.3392 H   0  0  0  0  0  0  0  0  0  0  0  0
   18.4531   19.3227   20.9034 H   0  0  0  0  0  0  0  0  0  0  0  0
   17.5939   20.6544   21.3556 H   0  0  0  0  0  0  0  0  0  0  0  0
   19.4593   20.4949   22.3563 C   0  0  0  0  0  0  0  0  0  0  0  0
   19.0245   19.9637   23.2070 H   0  0  0  0  0  0  0  0  0  0  0  0
   19.4806   21.5612   22.5974 H   0  0  0  0  0  0  0  0  0  0  0  0
   20.8983   19.9966   22.1126 C   0  0  0  0  0  0  0  0  0  0  0  0
   21.3372   20.5600   21.2786 H   0  0  0  0  0  0  0  0  0  0  0  0
   21.5098   20.2380   22.9914 H   0  0  0  0  0  0  0  0  0  0  0  0
   20.9970   18.4780   21.8108 C   0  0  0  0  0  0  0  0  0  0  0  0
   22.0553   18.2106   21.6853 H   0  0  0  0  0  0  0  0  0  0  0  0
   20.5213   18.2680   20.8434 H   0  0  0  0  0  0  0  0  0  0  0  0
   20.3689   17.5585   22.8892 C   0  0  0  0  0  0  0  0  0  0  0  0
   19.2885   17.7422   22.9634 H   0  0  0  0  0  0  0  0  0  0  0  0
   20.4755   16.5139   22.5647 H   0  0  0  0  0  0  0  0  0  0  0  0
   21.0188   17.7154   24.2827 C   0  0  0  0  0  0  0  0  0  0  0  0
   20.8394   18.7137   24.7007 H   0  0  0  0  0  0  0  0  0  0  0  0
   20.6017   16.9833   24.9862 H   0  0  0  0  0  0  0  0  0  0  0  0
   22.1033   17.5528   24.2331 H   0  0  0  0  0  0  0  0  0  0  0  0
  1  2  1  0  0  0  0
  1  3  1  0  0  0  0
  1  4  1  0  0  0  0
  1  5  1  0  0  0  0
  5  6  1  0  0  0  0
  5  7  1  0  0  0  0
  5  8  1  0  0  0  0
  8  9  1  0  0  0  0
  8 10  1  0  0  0  0
  8 11  1  0  0  0  0
 11 12  1  0  0  0  0
 11 13  1  0  0  0  0
 11 14  1  0  0  0  0
 14 15  1  0  0  0  0
 14 16  1  0  0  0  0
 14 17  1  0  0  0  0
 17 18  1  0  0  0  0
 17 19  1  0  0  0  0
 17 20  1  0  0  0  0
M  END
> <VConfSearch Rank>
252

> <Conf_Id>
1

> <Delta U+W>
1.032

> <U+W>
-10.746

> <U>
47.562

> <W>
-58.308

> <W(PB)>
-60.184

> <W(SA)>
1.877

> <Valence>
2.149

> <Coulomb>
45.035

> <VdW>
0.378

> <VdW6>
-5.599

> <VdW12>
5.978

> <Bond>
0.185

> <Angle>
0.935

> <Pdih>
1.028

> <Idih>
0.000

> <Tether>
0.000

$$$$
VeraChem MOL file


 20 19  0  0  0  0  0  0  0  0999 V2000     
   22.2249   20.2854   22.1213 N   0  3  0  0  0  0  0  0  0  0  0  0
   22.8038   20.5388   22.9280 H   0  0  0  0  0  0  0  0  0  0  0  0
   22.3966   19.2953   21.9244 H   0  0  0  0  0  0  0  0  0  0  0  0
   22.5818   20.8163   21.3200 H   0  0  0  0  0  0  0  0  0  0  0  0
   20.7553   20.5637   22.3715 C   0  0  0  0  0  0  0  0  0  0  0  0
   20.2048   20.3017   21.4667 H   0  0  0  0  0  0  0  0  0  0  0  0
   20.6474   21.6401   22.5307 H   0  0  0  0  0  0  0  0  0  0  0  0
   20.1768   19.8119   23.5892 C   0  0  0  0  0  0  0  0  0  0  0  0
   20.7628   20.0947   24.4738 H   0  0  0  0  0  0  0  0  0  0  0  0
   19.1545   20.1634   23.7815 H   0  0  0  0  0  0  0  0  0  0  0  0
   20.1795   18.2648   23.4590 C   0  0  0  0  0  0  0  0  0  0  0  0
   20.1595   17.8419   24.4730 H   0  0  0  0  0  0  0  0  0  0  0  0
   21.1206   17.9151   23.0154 H   0  0  0  0  0  0  0  0  0  0  0  0
   18.9754   17.6689   22.6851 C   0  0  0  0  0  0  0  0  0  0  0  0
   19.0391   16.5730   22.7401 H   0  0  0  0  0  0  0  0  0  0  0  0
   18.0383   17.9430   23.1895 H   0  0  0  0  0  0  0  0  0  0  0  0
   18.8984   18.0814   21.1986 C   0  0  0  0  0  0  0  0  0  0  0  0
   19.8592   17.9264   20.6910 H   0  0  0  0  0  0  0  0  0  0  0  0
   18.1423   17.4822   20.6748 H   0  0  0  0  0  0  0  0  0  0  0  0
   18.6080   19.1331   21.0903 H   0  0  0  0  0  0  0  0  0  0  0  0
  1  2  1  0  0  0  0
  1  3  1  0  0  0  0
  1  4  1  0  0  0  0
  1  5  1  0  0  0  0
  5  6  1  0  0  0  0
  5  7  1  0  0  0  0
  5  8  1  0  0  0  0
  8  9  1  0  0  0  0
  8 10  1  0  0  0  0
  8 11  1  0  0  0  0
 11 12  1  0  0  0  0
 11 13  1  0  0  0  0
 11 14  1  0  0  0  0
 14 15  1  0  0  0  0
 14 16  1  0  0  0  0
 14 17  1  0  0  0  0
 17 18  1  0  0  0  0
 17 19  1  0  0  0  0
 17 20  1  0  0  0  0
M  END
> <VConfSearch Rank>
253

> <Conf_Id>
80

> <Delta U+W>
2.920

> <U+W>
-8.857

> <U>
49.434

> <W>
-58.292

> <W(PB)>
-60.170

> <W(SA)>
1.879

> <Valence>
3.798

> <Coulomb>
45.253

> <VdW>
0.384

> <VdW6>
-5.595

> <VdW12>
5.979

> <Bond>
0.198

> <Angle>
1.368

> <Pdih>
2.231

> <Idih>
0.000

> <Tether>
0.000

$$$$
VeraChem MOL file


 20 19  0  0  0  0  0  0  0  0999 V2000     
   21.7564   19.7595   20.8401 N   0  3  0  0  0  0  0  0  0  0  0  0
   22.3413   20.5900   20.9758 H   0  0  0  0  0  0  0  0  0  0  0  0
   22.1645   19.2315   20.0616 H   0  0  0  0  0  0  0  0  0  0  0  0
   20.8359   20.0847   20.5308 H   0  0  0  0  0  0  0  0  0  0  0  0
   21.6639   18.9222   22.1011 C   0  0  0  0  0  0  0  0  0  0  0  0
   22.6737   18.5793   22.3423 H   0  0  0  0  0  0  0  0  0  0  0  0
   21.0560   18.0441   21.8777 H   0  0  0  0  0  0  0  0  0  0  0  0
   21.0848   19.6824   23.3133 C   0  0  0  0  0  0  0  0  0  0  0  0
   21.1716   19.0557   24.2108 H   0  0  0  0  0  0  0  0  0  0  0  0
   21.7175   20.5607   23.4982 H   0  0  0  0  0  0  0  0  0  0  0  0
   19.6139   20.1497   23.1451 C   0  0  0  0  0  0  0  0  0  0  0  0
   19.4477   20.5504   22.1369 H   0  0  0  0  0  0  0  0  0  0  0  0
   19.4498   20.9959   23.8266 H   0  0  0  0  0  0  0  0  0  0  0  0
   18.5427   19.0776   23.4722 C   0  0  0  0  0  0  0  0  0  0  0  0
   18.6536   18.7488   24.5150 H   0  0  0  0  0  0  0  0  0  0  0  0
   17.5522   19.5496   23.4077 H   0  0  0  0  0  0  0  0  0  0  0  0
   18.5601   17.8456   22.5406 C   0  0  0  0  0  0  0  0  0  0  0  0
   19.4337   17.2116   22.7330 H   0  0  0  0  0  0  0  0  0  0  0  0
   17.6690   17.2271   22.7089 H   0  0  0  0  0  0  0  0  0  0  0  0
   18.5662   18.1440   21.4844 H   0  0  0  0  0  0  0  0  0  0  0  0
  1  2  1  0  0  0  0
  1  3  1  0  0  0  0
  1  4  1  0  0  0  0
  1  5  1  0  0  0  0
  5  6  1  0  0  0  0
  5  7  1  0  0  0  0
  5  8  1  0  0  0  0
  8  9  1  0  0  0  0
  8 10  1  0  0  0  0
  8 11  1  0  0  0  0
 11 12  1  0  0  0  0
 11 13  1  0  0  0  0
 11 14  1  0  0  0  0
 14 15  1  0  0  0  0
 14 16  1  0  0  0  0
 14 17  1  0  0  0  0
 17 18  1  0  0  0  0
 17 19  1  0  0  0  0
 17 20  1  0  0  0  0
M  END
> <VConfSearch Rank>
254

> <Conf_Id>
65

> <Delta U+W>
2.949

> <U+W>
-8.829

> <U>
49.435

> <W>
-58.263

> <W(PB)>
-60.125

> <W(SA)>
1.862

> <Valence>
3.797

> <Coulomb>
45.253

> <VdW>
0.384

> <VdW6>
-5.596

> <VdW12>
5.980

> <Bond>
0.198

> <Angle>
1.369

> <Pdih>
2.230

> <Idih>
0.000

> <Tether>
0.000

$$$$
VeraChem MOL file


 20 19  0  0  0  0  0  0  0  0999 V2000     
   20.5738   19.9939   24.2152 N   0  3  0  0  0  0  0  0  0  0  0  0
   21.3704   20.4699   24.6519 H   0  0  0  0  0  0  0  0  0  0  0  0
   20.2570   20.5794   23.4365 H   0  0  0  0  0  0  0  0  0  0  0  0
   19.8203   19.9758   24.9096 H   0  0  0  0  0  0  0  0  0  0  0  0
   20.9392   18.5991   23.7453 C   0  0  0  0  0  0  0  0  0  0  0  0
   21.2628   18.0395   24.6272 H   0  0  0  0  0  0  0  0  0  0  0  0
   21.7874   18.6711   23.0593 H   0  0  0  0  0  0  0  0  0  0  0  0
   19.7792   17.8425   23.0668 C   0  0  0  0  0  0  0  0  0  0  0  0
   19.9900   16.7678   23.1467 H   0  0  0  0  0  0  0  0  0  0  0  0
   18.8497   18.0065   23.6280 H   0  0  0  0  0  0  0  0  0  0  0  0
   19.5634   18.1721   21.5653 C   0  0  0  0  0  0  0  0  0  0  0  0
   18.7508   17.5280   21.2014 H   0  0  0  0  0  0  0  0  0  0  0  0
   20.4505   17.8798   20.9864 H   0  0  0  0  0  0  0  0  0  0  0  0
   19.1857   19.6427   21.2534 C   0  0  0  0  0  0  0  0  0  0  0  0
   18.4790   19.6515   20.4116 H   0  0  0  0  0  0  0  0  0  0  0  0
   18.6433   20.0878   22.0984 H   0  0  0  0  0  0  0  0  0  0  0  0
   20.4030   20.5118   20.8575 C   0  0  0  0  0  0  0  0  0  0  0  0
   21.1918   20.5000   21.6172 H   0  0  0  0  0  0  0  0  0  0  0  0
   20.8451   20.1520   19.9192 H   0  0  0  0  0  0  0  0  0  0  0  0
   20.0989   21.5549   20.7002 H   0  0  0  0  0  0  0  0  0  0  0  0
  1  2  1  0  0  0  0
  1  3  1  0  0  0  0
  1  4  1  0  0  0  0
  1  5  1  0  0  0  0
  5  6  1  0  0  0  0
  5  7  1  0  0  0  0
  5  8  1  0  0  0  0
  8  9  1  0  0  0  0
  8 10  1  0  0  0  0
  8 11  1  0  0  0  0
 11 12  1  0  0  0  0
 11 13  1  0  0  0  0
 11 14  1  0  0  0  0
 14 15  1  0  0  0  0
 14 16  1  0  0  0  0
 14 17  1  0  0  0  0
 17 18  1  0  0  0  0
 17 19  1  0  0  0  0
 17 20  1  0  0  0  0
M  END
> <VConfSearch Rank>
255

> <Conf_Id>
77

> <Delta U+W>
5.366

> <U+W>
-6.412

> <U>
51.542

> <W>
-57.954

> <W(PB)>
-59.811

> <W(SA)>
1.857

> <Valence>
5.347

> <Coulomb>
45.870

> <VdW>
0.325

> <VdW6>
-6.161

> <VdW12>
6.486

> <Bond>
0.201

> <Angle>
1.484

> <Pdih>
3.662

> <Idih>
0.000

> <Tether>
0.000

$$$$
VeraChem MOL file


 20 19  0  0  0  0  0  0  0  0999 V2000     
   19.2989   19.0260   20.7022 N   0  3  0  0  0  0  0  0  0  0  0  0
   19.8445   18.6297   19.9304 H   0  0  0  0  0  0  0  0  0  0  0  0
   19.1558   18.2796   21.3893 H   0  0  0  0  0  0  0  0  0  0  0  0
   18.3790   19.2721   20.3214 H   0  0  0  0  0  0  0  0  0  0  0  0
   19.9907   20.2241   21.3231 C   0  0  0  0  0  0  0  0  0  0  0  0
   19.3388   20.6456   22.0928 H   0  0  0  0  0  0  0  0  0  0  0  0
   20.1083   20.9702   20.5325 H   0  0  0  0  0  0  0  0  0  0  0  0
   21.3746   19.9061   21.9250 C   0  0  0  0  0  0  0  0  0  0  0  0
   21.9295   19.2408   21.2503 H   0  0  0  0  0  0  0  0  0  0  0  0
   21.9471   20.8425   21.9578 H   0  0  0  0  0  0  0  0  0  0  0  0
   21.3515   19.3150   23.3602 C   0  0  0  0  0  0  0  0  0  0  0  0
   20.9154   20.0432   24.0581 H   0  0  0  0  0  0  0  0  0  0  0  0
   22.3952   19.1907   23.6808 H   0  0  0  0  0  0  0  0  0  0  0  0
   20.6390   17.9462   23.5058 C   0  0  0  0  0  0  0  0  0  0  0  0
   20.7111   17.3740   22.5711 H   0  0  0  0  0  0  0  0  0  0  0  0
   21.1752   17.3509   24.2583 H   0  0  0  0  0  0  0  0  0  0  0  0
   19.1670   18.0731   23.9650 C   0  0  0  0  0  0  0  0  0  0  0  0
   18.6864   17.0867   24.0009 H   0  0  0  0  0  0  0  0  0  0  0  0
   19.1132   18.5032   24.9737 H   0  0  0  0  0  0  0  0  0  0  0  0
   18.5748   18.7143   23.3033 H   0  0  0  0  0  0  0  0  0  0  0  0
  1  2  1  0  0  0  0
  1  3  1  0  0  0  0
  1  4  1  0  0  0  0
  1  5  1  0  0  0  0
  5  6  1  0  0  0  0
  5  7  1  0  0  0  0
  5  8  1  0  0  0  0
  8  9  1  0  0  0  0
  8 10  1  0  0  0  0
  8 11  1  0  0  0  0
 11 12  1  0  0  0  0
 11 13  1  0  0  0  0
 11 14  1  0  0  0  0
 14 15  1  0  0  0  0
 14 16  1  0  0  0  0
 14 17  1  0  0  0  0
 17 18  1  0  0  0  0
 17 19  1  0  0  0  0
 17 20  1  0  0  0  0
M  END
> <VConfSearch Rank>
256

> <Conf_Id>
67

> <Delta U+W>
5.353

> <U+W>
-6.425

> <U>
51.541

> <W>
-57.966

> <W(PB)>
-59.821

> <W(SA)>
1.855

> <Valence>
5.347

> <Coulomb>
45.870

> <VdW>
0.325

> <VdW6>
-6.161

> <VdW12>
6.486

> <Bond>
0.201

> <Angle>
1.485

> <Pdih>
3.662

> <Idih>
0.000

> <Tether>
0.000

$$$$
VeraChem MOL file


 20 19  0  0  0  0  0  0  0  0999 V2000     
   17.6727   18.8658   24.4970 N   0  3  0  0  0  0  0  0  0  0  0  0
   17.1783   18.1044   24.0213 H   0  0  0  0  0  0  0  0  0  0  0  0
   17.5354   18.7261   25.5036 H   0  0  0  0  0  0  0  0  0  0  0  0
   17.1929   19.7371   24.2500 H   0  0  0  0  0  0  0  0  0  0  0  0
   19.1423   18.9041   24.1292 C   0  0  0  0  0  0  0  0  0  0  0  0
   19.5945   17.9607   24.4470 H   0  0  0  0  0  0  0  0  0  0  0  0
   19.6102   19.7160   24.6926 H   0  0  0  0  0  0  0  0  0  0  0  0
   19.3837   19.1127   22.6233 C   0  0  0  0  0  0  0  0  0  0  0  0
   18.8986   18.3040   22.0605 H   0  0  0  0  0  0  0  0  0  0  0  0
   18.9142   20.0532   22.3053 H   0  0  0  0  0  0  0  0  0  0  0  0
   20.8921   19.1456   22.2912 C   0  0  0  0  0  0  0  0  0  0  0  0
   21.3595   18.2053   22.6155 H   0  0  0  0  0  0  0  0  0  0  0  0
   21.3752   19.9525   22.8599 H   0  0  0  0  0  0  0  0  0  0  0  0
   21.1466   19.3545   20.7815 C   0  0  0  0  0  0  0  0  0  0  0  0
   20.6668   18.5483   20.2090 H   0  0  0  0  0  0  0  0  0  0  0  0
   20.6825   20.2953   20.4534 H   0  0  0  0  0  0  0  0  0  0  0  0
   22.6549   19.3867   20.4544 C   0  0  0  0  0  0  0  0  0  0  0  0
   23.1412   18.4448   20.7399 H   0  0  0  0  0  0  0  0  0  0  0  0
   22.8153   19.5357   19.3787 H   0  0  0  0  0  0  0  0  0  0  0  0
   23.1571   20.2055   20.9861 H   0  0  0  0  0  0  0  0  0  0  0  0
  1  2  1  0  0  0  0
  1  3  1  0  0  0  0
  1  4  1  0  0  0  0
  1  5  1  0  0  0  0
  5  6  1  0  0  0  0
  5  7  1  0  0  0  0
  5  8  1  0  0  0  0
  8  9  1  0  0  0  0
  8 10  1  0  0  0  0
  8 11  1  0  0  0  0
 11 12  1  0  0  0  0
 11 13  1  0  0  0  0
 11 14  1  0  0  0  0
 14 15  1  0  0  0  0
 14 16  1  0  0  0  0
 14 17  1  0  0  0  0
 17 18  1  0  0  0  0
 17 19  1  0  0  0  0
 17 20  1  0  0  0  0
M  END
> <VConfSearch Rank>
257

> <Conf_Id>
72

> <Delta U+W>
0.000

> <U+W>
-11.778

> <U>
45.772

> <W>
-57.550

> <W(PB)>
-59.511

> <W(SA)>
1.961

> <Valence>
1.299

> <Coulomb>
44.177

> <VdW>
0.297

> <VdW6>
-3.490

> <VdW12>
3.786

> <Bond>
0.096

> <Angle>
0.381

> <Pdih>
0.822

> <Idih>
0.000

> <Tether>
0.000

$$$$
VeraChem MOL file


 20 19  0  0  0  0  0  0  0  0999 V2000     
   21.4852   17.2197   20.6739 N   0  3  0  0  0  0  0  0  0  0  0  0
   21.7361   17.9658   20.0176 H   0  0  0  0  0  0  0  0  0  0  0  0
   22.3061   17.0479   21.2629 H   0  0  0  0  0  0  0  0  0  0  0  0
   21.3364   16.3716   20.1169 H   0  0  0  0  0  0  0  0  0  0  0  0
   20.2626   17.5751   21.4957 C   0  0  0  0  0  0  0  0  0  0  0  0
   20.0359   16.7269   22.1474 H   0  0  0  0  0  0  0  0  0  0  0  0
   19.4231   17.7144   20.8091 H   0  0  0  0  0  0  0  0  0  0  0  0
   20.4525   18.8446   22.3452 C   0  0  0  0  0  0  0  0  0  0  0  0
   21.3062   18.7063   23.0219 H   0  0  0  0  0  0  0  0  0  0  0  0
   20.6968   19.6848   21.6831 H   0  0  0  0  0  0  0  0  0  0  0  0
   19.1829   19.1677   23.1679 C   0  0  0  0  0  0  0  0  0  0  0  0
   18.9109   18.2872   23.7667 H   0  0  0  0  0  0  0  0  0  0  0  0
   18.3387   19.3516   22.4889 H   0  0  0  0  0  0  0  0  0  0  0  0
   19.3544   20.3766   24.1197 C   0  0  0  0  0  0  0  0  0  0  0  0
   18.4498   20.4706   24.7368 H   0  0  0  0  0  0  0  0  0  0  0  0
   20.1827   20.1866   24.8166 H   0  0  0  0  0  0  0  0  0  0  0  0
   19.5936   21.7126   23.3799 C   0  0  0  0  0  0  0  0  0  0  0  0
   18.7929   21.9123   22.6560 H   0  0  0  0  0  0  0  0  0  0  0  0
   19.6170   22.5473   24.0924 H   0  0  0  0  0  0  0  0  0  0  0  0
   20.5504   21.7112   22.8433 H   0  0  0  0  0  0  0  0  0  0  0  0
  1  2  1  0  0  0  0
  1  3  1  0  0  0  0
  1  4  1  0  0  0  0
  1  5  1  0  0  0  0
  5  6  1  0  0  0  0
  5  7  1  0  0  0  0
  5  8  1  0  0  0  0
  8  9  1  0  0  0  0
  8 10  1  0  0  0  0
  8 11  1  0  0  0  0
 11 12  1  0  0  0  0
 11 13  1  0  0  0  0
 11 14  1  0  0  0  0
 14 15  1  0  0  0  0
 14 16  1  0  0  0  0
 14 17  1  0  0  0  0
 17 18  1  0  0  0  0
 17 19  1  0  0  0  0
 17 20  1  0  0  0  0
M  END
> <VConfSearch Rank>
258

> <Conf_Id>
42

> <Delta U+W>
0.508

> <U+W>
-11.270

> <U>
46.486

> <W>
-57.756

> <W(PB)>
-59.705

> <W(SA)>
1.949

> <Valence>
1.806

> <Coulomb>
44.248

> <VdW>
0.433

> <VdW6>
-4.089

> <VdW12>
4.522

> <Bond>
0.131

> <Angle>
0.628

> <Pdih>
1.047

> <Idih>
0.000

> <Tether>
0.000

$$$$
VeraChem MOL file


 20 19  0  0  0  0  0  0  0  0999 V2000     
   22.1483   16.8260   22.1887 N   0  3  0  0  0  0  0  0  0  0  0  0
   21.9098   16.5565   21.2291 H   0  0  0  0  0  0  0  0  0  0  0  0
   22.9238   17.4935   22.1304 H   0  0  0  0  0  0  0  0  0  0  0  0
   22.5128   15.9865   22.6512 H   0  0  0  0  0  0  0  0  0  0  0  0
   20.9577   17.4035   22.9274 C   0  0  0  0  0  0  0  0  0  0  0  0
   21.2749   17.6392   23.9469 H   0  0  0  0  0  0  0  0  0  0  0  0
   20.1852   16.6314   22.9782 H   0  0  0  0  0  0  0  0  0  0  0  0
   20.3848   18.6660   22.2586 C   0  0  0  0  0  0  0  0  0  0  0  0
   21.1728   19.4270   22.1969 H   0  0  0  0  0  0  0  0  0  0  0  0
   20.0823   18.4286   21.2300 H   0  0  0  0  0  0  0  0  0  0  0  0
   19.1719   19.2190   23.0437 C   0  0  0  0  0  0  0  0  0  0  0  0
   19.4850   19.4998   24.0589 H   0  0  0  0  0  0  0  0  0  0  0  0
   18.4269   18.4196   23.1607 H   0  0  0  0  0  0  0  0  0  0  0  0
   18.4920   20.4292   22.3583 C   0  0  0  0  0  0  0  0  0  0  0  0
   18.1559   20.1458   21.3511 H   0  0  0  0  0  0  0  0  0  0  0  0
   17.5854   20.6903   22.9222 H   0  0  0  0  0  0  0  0  0  0  0  0
   19.4006   21.6768   22.2712 C   0  0  0  0  0  0  0  0  0  0  0  0
   20.2633   21.5029   21.6163 H   0  0  0  0  0  0  0  0  0  0  0  0
   18.8436   22.5297   21.8623 H   0  0  0  0  0  0  0  0  0  0  0  0
   19.7733   21.9643   23.2628 H   0  0  0  0  0  0  0  0  0  0  0  0
  1  2  1  0  0  0  0
  1  3  1  0  0  0  0
  1  4  1  0  0  0  0
  1  5  1  0  0  0  0
  5  6  1  0  0  0  0
  5  7  1  0  0  0  0
  5  8  1  0  0  0  0
  8  9  1  0  0  0  0
  8 10  1  0  0  0  0
  8 11  1  0  0  0  0
 11 12  1  0  0  0  0
 11 13  1  0  0  0  0
 11 14  1  0  0  0  0
 14 15  1  0  0  0  0
 14 16  1  0  0  0  0
 14 17  1  0  0  0  0
 17 18  1  0  0  0  0
 17 19  1  0  0  0  0
 17 20  1  0  0  0  0
M  END
> <VConfSearch Rank>
259

> <Conf_Id>
41

> <Delta U+W>
0.515

> <U+W>
-11.263

> <U>
46.486

> <W>
-57.749

> <W(PB)>
-59.685

> <W(SA)>
1.936

> <Valence>
1.806

> <Coulomb>
44.248

> <VdW>
0.433

> <VdW6>
-4.089

> <VdW12>
4.522

> <Bond>
0.131

> <Angle>
0.628

> <Pdih>
1.047

> <Idih>
0.000

> <Tether>
0.000

$$$$
VeraChem MOL file


 20 19  0  0  0  0  0  0  0  0999 V2000     
   22.3499   17.7811   23.4564 N   0  3  0  0  0  0  0  0  0  0  0  0
   22.7792   17.0885   24.0789 H   0  0  0  0  0  0  0  0  0  0  0  0
   22.1902   17.3159   22.5580 H   0  0  0  0  0  0  0  0  0  0  0  0
   23.0493   18.5132   23.2983 H   0  0  0  0  0  0  0  0  0  0  0  0
   21.0667   18.3420   24.0385 C   0  0  0  0  0  0  0  0  0  0  0  0
   21.3088   18.7806   25.0104 H   0  0  0  0  0  0  0  0  0  0  0  0
   20.3762   17.5105   24.2036 H   0  0  0  0  0  0  0  0  0  0  0  0
   20.3924   19.4081   23.1526 C   0  0  0  0  0  0  0  0  0  0  0  0
   19.5484   19.8291   23.7129 H   0  0  0  0  0  0  0  0  0  0  0  0
   21.0942   20.2335   22.9742 H   0  0  0  0  0  0  0  0  0  0  0  0
   19.8913   18.8350   21.8030 C   0  0  0  0  0  0  0  0  0  0  0  0
   19.1724   18.0250   21.9893 H   0  0  0  0  0  0  0  0  0  0  0  0
   20.7333   18.3825   21.2628 H   0  0  0  0  0  0  0  0  0  0  0  0
   19.2437   19.8992   20.8837 C   0  0  0  0  0  0  0  0  0  0  0  0
   19.9636   20.7051   20.6831 H   0  0  0  0  0  0  0  0  0  0  0  0
   19.0224   19.4369   19.9115 H   0  0  0  0  0  0  0  0  0  0  0  0
   17.9390   20.4980   21.4572 C   0  0  0  0  0  0  0  0  0  0  0  0
   18.1273   21.0797   22.3679 H   0  0  0  0  0  0  0  0  0  0  0  0
   17.4727   21.1722   20.7270 H   0  0  0  0  0  0  0  0  0  0  0  0
   17.2136   19.7094   21.6957 H   0  0  0  0  0  0  0  0  0  0  0  0
  1  2  1  0  0  0  0
  1  3  1  0  0  0  0
  1  4  1  0  0  0  0
  1  5  1  0  0  0  0
  5  6  1  0  0  0  0
  5  7  1  0  0  0  0
  5  8  1  0  0  0  0
  8  9  1  0  0  0  0
  8 10  1  0  0  0  0
  8 11  1  0  0  0  0
 11 12  1  0  0  0  0
 11 13  1  0  0  0  0
 11 14  1  0  0  0  0
 14 15  1  0  0  0  0
 14 16  1  0  0  0  0
 14 17  1  0  0  0  0
 17 18  1  0  0  0  0
 17 19  1  0  0  0  0
 17 20  1  0  0  0  0
M  END
> <VConfSearch Rank>
260

> <Conf_Id>
33

> <Delta U+W>
0.703

> <U+W>
-11.075

> <U>
47.080

> <W>
-58.154

> <W(PB)>
-60.053

> <W(SA)>
1.899

> <Valence>
1.943

> <Coulomb>
44.572

> <VdW>
0.565

> <VdW6>
-4.575

> <VdW12>
5.139

> <Bond>
0.158

> <Angle>
0.700

> <Pdih>
1.085

> <Idih>
0.000

> <Tether>
0.000

$$$$
VeraChem MOL file


 20 19  0  0  0  0  0  0  0  0999 V2000     
   19.9892   21.8092   21.8120 N   0  3  0  0  0  0  0  0  0  0  0  0
   20.0607   22.5804   21.1401 H   0  0  0  0  0  0  0  0  0  0  0  0
   19.2909   22.0856   22.5093 H   0  0  0  0  0  0  0  0  0  0  0  0
   20.8910   21.7492   22.2939 H   0  0  0  0  0  0  0  0  0  0  0  0
   19.6232   20.5034   21.1329 C   0  0  0  0  0  0  0  0  0  0  0  0
   20.3927   20.2796   20.3891 H   0  0  0  0  0  0  0  0  0  0  0  0
   18.6772   20.6584   20.6070 H   0  0  0  0  0  0  0  0  0  0  0  0
   19.4778   19.3142   22.1027 C   0  0  0  0  0  0  0  0  0  0  0  0
   18.7169   19.5488   22.8587 H   0  0  0  0  0  0  0  0  0  0  0  0
   19.0997   18.4567   21.5322 H   0  0  0  0  0  0  0  0  0  0  0  0
   20.8135   18.9369   22.7916 C   0  0  0  0  0  0  0  0  0  0  0  0
   21.2058   19.8092   23.3309 H   0  0  0  0  0  0  0  0  0  0  0  0
   21.5632   18.6816   22.0299 H   0  0  0  0  0  0  0  0  0  0  0  0
   20.6797   17.7674   23.7972 C   0  0  0  0  0  0  0  0  0  0  0  0
   21.6381   17.6413   24.3202 H   0  0  0  0  0  0  0  0  0  0  0  0
   19.9406   18.0234   24.5693 H   0  0  0  0  0  0  0  0  0  0  0  0
   20.2955   16.4247   23.1343 C   0  0  0  0  0  0  0  0  0  0  0  0
   21.0020   16.1614   22.3364 H   0  0  0  0  0  0  0  0  0  0  0  0
   20.3084   15.6138   23.8740 H   0  0  0  0  0  0  0  0  0  0  0  0
   19.2874   16.4604   22.7035 H   0  0  0  0  0  0  0  0  0  0  0  0
  1  2  1  0  0  0  0
  1  3  1  0  0  0  0
  1  4  1  0  0  0  0
  1  5  1  0  0  0  0
  5  6  1  0  0  0  0
  5  7  1  0  0  0  0
  5  8  1  0  0  0  0
  8  9  1  0  0  0  0
  8 10  1  0  0  0  0
  8 11  1  0  0  0  0
 11 12  1  0  0  0  0
 11 13  1  0  0  0  0
 11 14  1  0  0  0  0
 14 15  1  0  0  0  0
 14 16  1  0  0  0  0
 14 17  1  0  0  0  0
 17 18  1  0  0  0  0
 17 19  1  0  0  0  0
 17 20  1  0  0  0  0
M  END
> <VConfSearch Rank>
261

> <Conf_Id>
24

> <Delta U+W>
0.847

> <U+W>
-10.931

> <U>
47.080

> <W>
-58.011

> <W(PB)>
-59.914

> <W(SA)>
1.903

> <Valence>
1.943

> <Coulomb>
44.572

> <VdW>
0.565

> <VdW6>
-4.575

> <VdW12>
5.140

> <Bond>
0.158

> <Angle>
0.700

> <Pdih>
1.085

> <Idih>
0.000

> <Tether>
0.000

$$$$
VeraChem MOL file


 20 19  0  0  0  0  0  0  0  0999 V2000     
   19.2494   21.8078   22.4668 N   0  3  0  0  0  0  0  0  0  0  0  0
   18.4986   22.2010   21.8897 H   0  0  0  0  0  0  0  0  0  0  0  0
   18.8775   21.7177   23.4175 H   0  0  0  0  0  0  0  0  0  0  0  0
   19.9961   22.5090   22.5007 H   0  0  0  0  0  0  0  0  0  0  0  0
   19.7422   20.4819   21.9232 C   0  0  0  0  0  0  0  0  0  0  0  0
   20.0955   20.6458   20.9016 H   0  0  0  0  0  0  0  0  0  0  0  0
   18.8912   19.7967   21.8871 H   0  0  0  0  0  0  0  0  0  0  0  0
   20.8713   19.8631   22.7686 C   0  0  0  0  0  0  0  0  0  0  0  0
   21.7038   20.5763   22.8329 H   0  0  0  0  0  0  0  0  0  0  0  0
   20.5205   19.7067   23.7967 H   0  0  0  0  0  0  0  0  0  0  0  0
   21.3993   18.5308   22.1804 C   0  0  0  0  0  0  0  0  0  0  0  0
   22.2066   18.1528   22.8229 H   0  0  0  0  0  0  0  0  0  0  0  0
   21.8599   18.7303   21.2029 H   0  0  0  0  0  0  0  0  0  0  0  0
   20.3271   17.4242   22.0099 C   0  0  0  0  0  0  0  0  0  0  0  0
   19.5641   17.7432   21.2868 H   0  0  0  0  0  0  0  0  0  0  0  0
   20.8057   16.5376   21.5709 H   0  0  0  0  0  0  0  0  0  0  0  0
   19.6476   17.0172   23.3371 C   0  0  0  0  0  0  0  0  0  0  0  0
   18.9678   16.1703   23.1770 H   0  0  0  0  0  0  0  0  0  0  0  0
   20.3917   16.7134   24.0848 H   0  0  0  0  0  0  0  0  0  0  0  0
   19.0554   17.8406   23.7555 H   0  0  0  0  0  0  0  0  0  0  0  0
  1  2  1  0  0  0  0
  1  3  1  0  0  0  0
  1  4  1  0  0  0  0
  1  5  1  0  0  0  0
  5  6  1  0  0  0  0
  5  7  1  0  0  0  0
  5  8  1  0  0  0  0
  8  9  1  0  0  0  0
  8 10  1  0  0  0  0
  8 11  1  0  0  0  0
 11 12  1  0  0  0  0
 11 13  1  0  0  0  0
 11 14  1  0  0  0  0
 14 15  1  0  0  0  0
 14 16  1  0  0  0  0
 14 17  1  0  0  0  0
 17 18  1  0  0  0  0
 17 19  1  0  0  0  0
 17 20  1  0  0  0  0
M  END
> <VConfSearch Rank>
262

> <Conf_Id>
64

> <Delta U+W>
0.707

> <U+W>
-11.070

> <U>
47.077

> <W>
-58.148

> <W(PB)>
-60.054

> <W(SA)>
1.906

> <Valence>
2.039

> <Coulomb>
44.655

> <VdW>
0.383

> <VdW6>
-4.912

> <VdW12>
5.295

> <Bond>
0.159

> <Angle>
0.856

> <Pdih>
1.024

> <Idih>
0.000

> <Tether>
0.000

$$$$
VeraChem MOL file


 20 19  0  0  0  0  0  0  0  0999 V2000     
   18.6244   17.0302   23.4510 N   0  3  0  0  0  0  0  0  0  0  0  0
   18.2081   16.4387   22.7250 H   0  0  0  0  0  0  0  0  0  0  0  0
   19.4429   16.5313   23.8135 H   0  0  0  0  0  0  0  0  0  0  0  0
   17.9448   17.0830   24.2171 H   0  0  0  0  0  0  0  0  0  0  0  0
   18.9861   18.4040   22.9234 C   0  0  0  0  0  0  0  0  0  0  0  0
   19.3935   18.9861   23.7541 H   0  0  0  0  0  0  0  0  0  0  0  0
   18.0670   18.8879   22.5823 H   0  0  0  0  0  0  0  0  0  0  0  0
   20.0068   18.3601   21.7707 C   0  0  0  0  0  0  0  0  0  0  0  0
   20.9266   17.8663   22.1094 H   0  0  0  0  0  0  0  0  0  0  0  0
   19.6053   17.7390   20.9590 H   0  0  0  0  0  0  0  0  0  0  0  0
   20.3363   19.7653   21.2079 C   0  0  0  0  0  0  0  0  0  0  0  0
   19.4280   20.1921   20.7602 H   0  0  0  0  0  0  0  0  0  0  0  0
   21.0572   19.6596   20.3854 H   0  0  0  0  0  0  0  0  0  0  0  0
   20.8979   20.7680   22.2483 C   0  0  0  0  0  0  0  0  0  0  0  0
   21.0765   21.7296   21.7470 H   0  0  0  0  0  0  0  0  0  0  0  0
   20.1478   20.9687   23.0254 H   0  0  0  0  0  0  0  0  0  0  0  0
   22.2150   20.2976   22.9064 C   0  0  0  0  0  0  0  0  0  0  0  0
   22.9759   20.0703   22.1485 H   0  0  0  0  0  0  0  0  0  0  0  0
   22.6180   21.0801   23.5622 H   0  0  0  0  0  0  0  0  0  0  0  0
   22.0611   19.4009   23.5195 H   0  0  0  0  0  0  0  0  0  0  0  0
  1  2  1  0  0  0  0
  1  3  1  0  0  0  0
  1  4  1  0  0  0  0
  1  5  1  0  0  0  0
  5  6  1  0  0  0  0
  5  7  1  0  0  0  0
  5  8  1  0  0  0  0
  8  9  1  0  0  0  0
  8 10  1  0  0  0  0
  8 11  1  0  0  0  0
 11 12  1  0  0  0  0
 11 13  1  0  0  0  0
 11 14  1  0  0  0  0
 14 15  1  0  0  0  0
 14 16  1  0  0  0  0
 14 17  1  0  0  0  0
 17 18  1  0  0  0  0
 17 19  1  0  0  0  0
 17 20  1  0  0  0  0
M  END
> <VConfSearch Rank>
263

> <Conf_Id>
22

> <Delta U+W>
0.731

> <U+W>
-11.047

> <U>
47.078

> <W>
-58.125

> <W(PB)>
-60.031

> <W(SA)>
1.906

> <Valence>
2.039

> <Coulomb>
44.655

> <VdW>
0.383

> <VdW6>
-4.913

> <VdW12>
5.296

> <Bond>
0.159

> <Angle>
0.856

> <Pdih>
1.024

> <Idih>
0.000

> <Tether>
0.000

$$$$
VeraChem MOL file


 20 19  0  0  0  0  0  0  0  0999 V2000     
   19.4908   20.7098   24.6954 N   0  3  0  0  0  0  0  0  0  0  0  0
   20.0212   20.2480   25.4409 H   0  0  0  0  0  0  0  0  0  0  0  0
   19.8295   21.6753   24.6385 H   0  0  0  0  0  0  0  0  0  0  0  0
   18.5154   20.7551   25.0086 H   0  0  0  0  0  0  0  0  0  0  0  0
   19.6245   19.9836   23.3720 C   0  0  0  0  0  0  0  0  0  0  0  0
   19.0151   20.5115   22.6333 H   0  0  0  0  0  0  0  0  0  0  0  0
   19.2185   18.9780   23.5030 H   0  0  0  0  0  0  0  0  0  0  0  0
   21.0788   19.8935   22.8766 C   0  0  0  0  0  0  0  0  0  0  0  0
   21.5109   20.9030   22.8647 H   0  0  0  0  0  0  0  0  0  0  0  0
   21.6733   19.3104   23.5923 H   0  0  0  0  0  0  0  0  0  0  0  0
   21.2232   19.2816   21.4600 C   0  0  0  0  0  0  0  0  0  0  0  0
   22.2827   19.3519   21.1769 H   0  0  0  0  0  0  0  0  0  0  0  0
   20.6791   19.8922   20.7262 H   0  0  0  0  0  0  0  0  0  0  0  0
   20.7940   17.7958   21.3435 C   0  0  0  0  0  0  0  0  0  0  0  0
   21.3733   17.3323   20.5325 H   0  0  0  0  0  0  0  0  0  0  0  0
   21.0636   17.2483   22.2574 H   0  0  0  0  0  0  0  0  0  0  0  0
   19.2933   17.5999   21.0237 C   0  0  0  0  0  0  0  0  0  0  0  0
   18.6460   17.9559   21.8318 H   0  0  0  0  0  0  0  0  0  0  0  0
   19.0141   18.1309   20.1044 H   0  0  0  0  0  0  0  0  0  0  0  0
   19.0714   16.5356   20.8720 H   0  0  0  0  0  0  0  0  0  0  0  0
  1  2  1  0  0  0  0
  1  3  1  0  0  0  0
  1  4  1  0  0  0  0
  1  5  1  0  0  0  0
  5  6  1  0  0  0  0
  5  7  1  0  0  0  0
  5  8  1  0  0  0  0
  8  9  1  0  0  0  0
  8 10  1  0  0  0  0
  8 11  1  0  0  0  0
 11 12  1  0  0  0  0
 11 13  1  0  0  0  0
 11 14  1  0  0  0  0
 14 15  1  0  0  0  0
 14 16  1  0  0  0  0
 14 17  1  0  0  0  0
 17 18  1  0  0  0  0
 17 19  1  0  0  0  0
 17 20  1  0  0  0  0
M  END
> <VConfSearch Rank>
264

> <Conf_Id>
61

> <Delta U+W>
2.669

> <U+W>
-9.108

> <U>
48.916

> <W>
-58.025

> <W(PB)>
-59.935

> <W(SA)>
1.911

> <Valence>
3.785

> <Coulomb>
44.716

> <VdW>
0.415

> <VdW6>
-4.836

> <VdW12>
5.251

> <Bond>
0.175

> <Angle>
1.195

> <Pdih>
2.415

> <Idih>
0.000

> <Tether>
0.000

$$$$
VeraChem MOL file


 20 19  0  0  0  0  0  0  0  0999 V2000     
   18.0165   18.3927   21.8359 N   0  3  0  0  0  0  0  0  0  0  0  0
   17.2882   18.4583   21.1170 H   0  0  0  0  0  0  0  0  0  0  0  0
   17.6078   17.8846   22.6266 H   0  0  0  0  0  0  0  0  0  0  0  0
   18.2093   19.3452   22.1562 H   0  0  0  0  0  0  0  0  0  0  0  0
   19.2637   17.7075   21.3111 C   0  0  0  0  0  0  0  0  0  0  0  0
   19.6221   18.2574   20.4368 H   0  0  0  0  0  0  0  0  0  0  0  0
   18.9634   16.7089   20.9823 H   0  0  0  0  0  0  0  0  0  0  0  0
   20.3996   17.5729   22.3471 C   0  0  0  0  0  0  0  0  0  0  0  0
   19.9883   17.2718   23.3198 H   0  0  0  0  0  0  0  0  0  0  0  0
   21.0477   16.7466   22.0260 H   0  0  0  0  0  0  0  0  0  0  0  0
   21.2840   18.8368   22.5021 C   0  0  0  0  0  0  0  0  0  0  0  0
   21.7340   19.0900   21.5320 H   0  0  0  0  0  0  0  0  0  0  0  0
   22.1200   18.5889   23.1708 H   0  0  0  0  0  0  0  0  0  0  0  0
   20.5438   20.0725   23.0654 C   0  0  0  0  0  0  0  0  0  0  0  0
   19.8017   20.4293   22.3403 H   0  0  0  0  0  0  0  0  0  0  0  0
   20.0017   19.7982   23.9813 H   0  0  0  0  0  0  0  0  0  0  0  0
   21.5203   21.2267   23.3773 C   0  0  0  0  0  0  0  0  0  0  0  0
   20.9787   22.0985   23.7667 H   0  0  0  0  0  0  0  0  0  0  0  0
   22.2599   20.9266   24.1311 H   0  0  0  0  0  0  0  0  0  0  0  0
   22.0606   21.5415   22.4749 H   0  0  0  0  0  0  0  0  0  0  0  0
  1  2  1  0  0  0  0
  1  3  1  0  0  0  0
  1  4  1  0  0  0  0
  1  5  1  0  0  0  0
  5  6  1  0  0  0  0
  5  7  1  0  0  0  0
  5  8  1  0  0  0  0
  8  9  1  0  0  0  0
  8 10  1  0  0  0  0
  8 11  1  0  0  0  0
 11 12  1  0  0  0  0
 11 13  1  0  0  0  0
 11 14  1  0  0  0  0
 14 15  1  0  0  0  0
 14 16  1  0  0  0  0
 14 17  1  0  0  0  0
 17 18  1  0  0  0  0
 17 19  1  0  0  0  0
 17 20  1  0  0  0  0
M  END
> <VConfSearch Rank>
265

> <Conf_Id>
69

> <Delta U+W>
2.811

> <U+W>
-8.967

> <U>
49.216

> <W>
-58.183

> <W(PB)>
-60.064

> <W(SA)>
1.881

> <Valence>
2.929

> <Coulomb>
46.006

> <VdW>
0.281

> <VdW6>
-4.909

> <VdW12>
5.190

> <Bond>
0.156

> <Angle>
0.974

> <Pdih>
1.799

> <Idih>
0.000

> <Tether>
0.000

$$$$
VeraChem MOL file


 20 19  0  0  0  0  0  0  0  0999 V2000     
   19.3730   20.9903   23.6275 N   0  3  0  0  0  0  0  0  0  0  0  0
   20.3246   20.9348   23.2554 H   0  0  0  0  0  0  0  0  0  0  0  0
   18.8379   21.5991   23.0002 H   0  0  0  0  0  0  0  0  0  0  0  0
   19.4304   21.4721   24.5309 H   0  0  0  0  0  0  0  0  0  0  0  0
   18.7354   19.6205   23.7610 C   0  0  0  0  0  0  0  0  0  0  0  0
   17.7347   19.7745   24.1738 H   0  0  0  0  0  0  0  0  0  0  0  0
   19.3123   19.0362   24.4828 H   0  0  0  0  0  0  0  0  0  0  0  0
   18.6151   18.8425   22.4337 C   0  0  0  0  0  0  0  0  0  0  0  0
   17.8148   18.1002   22.5536 H   0  0  0  0  0  0  0  0  0  0  0  0
   18.2835   19.5152   21.6316 H   0  0  0  0  0  0  0  0  0  0  0  0
   19.9017   18.0886   22.0094 C   0  0  0  0  0  0  0  0  0  0  0  0
   19.6662   17.4829   21.1233 H   0  0  0  0  0  0  0  0  0  0  0  0
   20.1865   17.3781   22.7977 H   0  0  0  0  0  0  0  0  0  0  0  0
   21.1039   19.0051   21.6823 C   0  0  0  0  0  0  0  0  0  0  0  0
   20.7962   19.7866   20.9733 H   0  0  0  0  0  0  0  0  0  0  0  0
   21.4520   19.5082   22.5931 H   0  0  0  0  0  0  0  0  0  0  0  0
   22.2806   18.2066   21.0817 C   0  0  0  0  0  0  0  0  0  0  0  0
   21.9885   17.7164   20.1438 H   0  0  0  0  0  0  0  0  0  0  0  0
   23.1283   18.8693   20.8645 H   0  0  0  0  0  0  0  0  0  0  0  0
   22.6284   17.4323   21.7780 H   0  0  0  0  0  0  0  0  0  0  0  0
  1  2  1  0  0  0  0
  1  3  1  0  0  0  0
  1  4  1  0  0  0  0
  1  5  1  0  0  0  0
  5  6  1  0  0  0  0
  5  7  1  0  0  0  0
  5  8  1  0  0  0  0
  8  9  1  0  0  0  0
  8 10  1  0  0  0  0
  8 11  1  0  0  0  0
 11 12  1  0  0  0  0
 11 13  1  0  0  0  0
 11 14  1  0  0  0  0
 14 15  1  0  0  0  0
 14 16  1  0  0  0  0
 14 17  1  0  0  0  0
 17 18  1  0  0  0  0
 17 19  1  0  0  0  0
 17 20  1  0  0  0  0
M  END
> <VConfSearch Rank>
266

> <Conf_Id>
26

> <Delta U+W>
2.809

> <U+W>
-8.969

> <U>
49.216

> <W>
-58.185

> <W(PB)>
-60.088

> <W(SA)>
1.903

> <Valence>
2.929

> <Coulomb>
46.006

> <VdW>
0.281

> <VdW6>
-4.909

> <VdW12>
5.190

> <Bond>
0.156

> <Angle>
0.974

> <Pdih>
1.799

> <Idih>
0.000

> <Tether>
0.000

$$$$
VeraChem MOL file


 20 19  0  0  0  0  0  0  0  0999 V2000     
   19.2125   17.5049   23.9560 N   0  3  0  0  0  0  0  0  0  0  0  0
   18.4523   17.8091   23.3408 H   0  0  0  0  0  0  0  0  0  0  0  0
   19.4053   16.5228   23.7361 H   0  0  0  0  0  0  0  0  0  0  0  0
   18.8515   17.5305   24.9154 H   0  0  0  0  0  0  0  0  0  0  0  0
   20.4460   18.3716   23.7943 C   0  0  0  0  0  0  0  0  0  0  0  0
   21.2008   18.0114   24.4987 H   0  0  0  0  0  0  0  0  0  0  0  0
   20.1818   19.3946   24.0744 H   0  0  0  0  0  0  0  0  0  0  0  0
   21.0302   18.3579   22.3671 C   0  0  0  0  0  0  0  0  0  0  0  0
   21.9573   18.9451   22.3587 H   0  0  0  0  0  0  0  0  0  0  0  0
   21.3234   17.3317   22.1088 H   0  0  0  0  0  0  0  0  0  0  0  0
   20.0607   18.8998   21.2838 C   0  0  0  0  0  0  0  0  0  0  0  0
   19.2086   18.2143   21.1830 H   0  0  0  0  0  0  0  0  0  0  0  0
   20.5720   18.8826   20.3114 H   0  0  0  0  0  0  0  0  0  0  0  0
   19.5256   20.3306   21.5471 C   0  0  0  0  0  0  0  0  0  0  0  0
   18.8367   20.6023   20.7350 H   0  0  0  0  0  0  0  0  0  0  0  0
   18.9279   20.3497   22.4684 H   0  0  0  0  0  0  0  0  0  0  0  0
   20.6416   21.3967   21.6304 C   0  0  0  0  0  0  0  0  0  0  0  0
   21.2650   21.3872   20.7270 H   0  0  0  0  0  0  0  0  0  0  0  0
   20.2080   22.4004   21.7282 H   0  0  0  0  0  0  0  0  0  0  0  0
   21.2917   21.2323   22.4987 H   0  0  0  0  0  0  0  0  0  0  0  0
  1  2  1  0  0  0  0
  1  3  1  0  0  0  0
  1  4  1  0  0  0  0
  1  5  1  0  0  0  0
  5  6  1  0  0  0  0
  5  7  1  0  0  0  0
  5  8  1  0  0  0  0
  8  9  1  0  0  0  0
  8 10  1  0  0  0  0
  8 11  1  0  0  0  0
 11 12  1  0  0  0  0
 11 13  1  0  0  0  0
 11 14  1  0  0  0  0
 14 15  1  0  0  0  0
 14 16  1  0  0  0  0
 14 17  1  0  0  0  0
 17 18  1  0  0  0  0
 17 19  1  0  0  0  0
 17 20  1  0  0  0  0
M  END
> <VConfSearch Rank>
267

> <Conf_Id>
2

> <Delta U+W>
0.994

> <U+W>
-10.784

> <U>
47.562

> <W>
-58.346

> <W(PB)>
-60.221

> <W(SA)>
1.875

> <Valence>
2.149

> <Coulomb>
45.034

> <VdW>
0.378

> <VdW6>
-5.599

> <VdW12>
5.977

> <Bond>
0.185

> <Angle>
0.935

> <Pdih>
1.028

> <Idih>
0.000

> <Tether>
0.000

$$$$
VeraChem MOL file


 20 19  0  0  0  0  0  0  0  0999 V2000     
   21.3218   20.7734   21.1694 N   0  3  0  0  0  0  0  0  0  0  0  0
   21.6418   20.5095   20.2324 H   0  0  0  0  0  0  0  0  0  0  0  0
   20.3194   20.9723   21.1019 H   0  0  0  0  0  0  0  0  0  0  0  0
   21.7881   21.6553   21.4066 H   0  0  0  0  0  0  0  0  0  0  0  0
   21.6114   19.6902   22.1900 C   0  0  0  0  0  0  0  0  0  0  0  0
   21.2774   20.0465   23.1679 H   0  0  0  0  0  0  0  0  0  0  0  0
   22.6954   19.5528   22.2313 H   0  0  0  0  0  0  0  0  0  0  0  0
   20.9365   18.3410   21.8701 C   0  0  0  0  0  0  0  0  0  0  0  0
   21.3043   17.9758   20.9021 H   0  0  0  0  0  0  0  0  0  0  0  0
   21.2592   17.5993   22.6119 H   0  0  0  0  0  0  0  0  0  0  0  0
   19.3866   18.4036   21.8365 C   0  0  0  0  0  0  0  0  0  0  0  0
   18.9964   17.3963   21.6358 H   0  0  0  0  0  0  0  0  0  0  0  0
   19.0662   19.0206   20.9863 H   0  0  0  0  0  0  0  0  0  0  0  0
   18.7297   18.9506   23.1296 C   0  0  0  0  0  0  0  0  0  0  0  0
   19.0315   19.9933   23.2979 H   0  0  0  0  0  0  0  0  0  0  0  0
   17.6401   18.9712   22.9877 H   0  0  0  0  0  0  0  0  0  0  0  0
   19.0522   18.1082   24.3847 C   0  0  0  0  0  0  0  0  0  0  0  0
   20.1196   18.1505   24.6348 H   0  0  0  0  0  0  0  0  0  0  0  0
   18.4947   18.4827   25.2529 H   0  0  0  0  0  0  0  0  0  0  0  0
   18.7749   17.0565   24.2362 H   0  0  0  0  0  0  0  0  0  0  0  0
  1  2  1  0  0  0  0
  1  3  1  0  0  0  0
  1  4  1  0  0  0  0
  1  5  1  0  0  0  0
  5  6  1  0  0  0  0
  5  7  1  0  0  0  0
  5  8  1  0  0  0  0
  8  9  1  0  0  0  0
  8 10  1  0  0  0  0
  8 11  1  0  0  0  0
 11 12  1  0  0  0  0
 11 13  1  0  0  0  0
 11 14  1  0  0  0  0
 14 15  1  0  0  0  0
 14 16  1  0  0  0  0
 14 17  1  0  0  0  0
 17 18  1  0  0  0  0
 17 19  1  0  0  0  0
 17 20  1  0  0  0  0
M  END
> <VConfSearch Rank>
268

> <Conf_Id>
1

> <Delta U+W>
1.032

> <U+W>
-10.746

> <U>
47.562

> <W>
-58.308

> <W(PB)>
-60.184

> <W(SA)>
1.877

> <Valence>
2.149

> <Coulomb>
45.035

> <VdW>
0.378

> <VdW6>
-5.599

> <VdW12>
5.978

> <Bond>
0.185

> <Angle>
0.935

> <Pdih>
1.028

> <Idih>
0.000

> <Tether>
0.000

$$$$
VeraChem MOL file


 20 19  0  0  0  0  0  0  0  0999 V2000     
   20.8413   20.8360   21.0262 N   0  3  0  0  0  0  0  0  0  0  0  0
   20.1383   21.5360   20.7696 H   0  0  0  0  0  0  0  0  0  0  0  0
   21.1820   21.0777   21.9612 H   0  0  0  0  0  0  0  0  0  0  0  0
   21.6291   20.9543   20.3807 H   0  0  0  0  0  0  0  0  0  0  0  0
   20.2800   19.4281   20.9774 C   0  0  0  0  0  0  0  0  0  0  0  0
   21.0851   18.7363   21.2298 H   0  0  0  0  0  0  0  0  0  0  0  0
   19.9784   19.2305   19.9451 H   0  0  0  0  0  0  0  0  0  0  0  0
   19.0694   19.2067   21.9092 C   0  0  0  0  0  0  0  0  0  0  0  0
   18.2885   19.9263   21.6295 H   0  0  0  0  0  0  0  0  0  0  0  0
   18.6428   18.2126   21.7211 H   0  0  0  0  0  0  0  0  0  0  0  0
   19.3773   19.3632   23.4228 C   0  0  0  0  0  0  0  0  0  0  0  0
   18.4352   19.6036   23.9346 H   0  0  0  0  0  0  0  0  0  0  0  0
   20.0328   20.2260   23.5976 H   0  0  0  0  0  0  0  0  0  0  0  0
   19.9671   18.1028   24.1066 C   0  0  0  0  0  0  0  0  0  0  0  0
   20.0537   18.3042   25.1836 H   0  0  0  0  0  0  0  0  0  0  0  0
   19.2620   17.2652   24.0115 H   0  0  0  0  0  0  0  0  0  0  0  0
   21.3519   17.6713   23.5756 C   0  0  0  0  0  0  0  0  0  0  0  0
   22.0508   18.5173   23.5498 H   0  0  0  0  0  0  0  0  0  0  0  0
   21.7853   16.8985   24.2235 H   0  0  0  0  0  0  0  0  0  0  0  0
   21.2783   17.2439   22.5687 H   0  0  0  0  0  0  0  0  0  0  0  0
  1  2  1  0  0  0  0
  1  3  1  0  0  0  0
  1  4  1  0  0  0  0
  1  5  1  0  0  0  0
  5  6  1  0  0  0  0
  5  7  1  0  0  0  0
  5  8  1  0  0  0  0
  8  9  1  0  0  0  0
  8 10  1  0  0  0  0
  8 11  1  0  0  0  0
 11 12  1  0  0  0  0
 11 13  1  0  0  0  0
 11 14  1  0  0  0  0
 14 15  1  0  0  0  0
 14 16  1  0  0  0  0
 14 17  1  0  0  0  0
 17 18  1  0  0  0  0
 17 19  1  0  0  0  0
 17 20  1  0  0  0  0
M  END
> <VConfSearch Rank>
269

> <Conf_Id>
80

> <Delta U+W>
2.920

> <U+W>
-8.857

> <U>
49.434

> <W>
-58.292

> <W(PB)>
-60.170

> <W(SA)>
1.879

> <Valence>
3.798

> <Coulomb>
45.253

> <VdW>
0.384

> <VdW6>
-5.595

> <VdW12>
5.979

> <Bond>
0.198

> <Angle>
1.368

> <Pdih>
2.231

> <Idih>
0.000

> <Tether>
0.000

$$$$
VeraChem MOL file


 20 19  0  0  0  0  0  0  0  0999 V2000     
   19.3854   19.6405   24.6303 N   0  3  0  0  0  0  0  0  0  0  0  0
   19.0971   18.8536   25.2201 H   0  0  0  0  0  0  0  0  0  0  0  0
   19.4392   20.4645   25.2382 H   0  0  0  0  0  0  0  0  0  0  0  0
   18.6287   19.8111   23.9618 H   0  0  0  0  0  0  0  0  0  0  0  0
   20.7039   19.3690   23.9320 C   0  0  0  0  0  0  0  0  0  0  0  0
   21.4651   19.2401   24.7063 H   0  0  0  0  0  0  0  0  0  0  0  0
   20.9644   20.2543   23.3497 H   0  0  0  0  0  0  0  0  0  0  0  0
   20.6849   18.1178   23.0282 C   0  0  0  0  0  0  0  0  0  0  0  0
   21.7014   17.9157   22.6656 H   0  0  0  0  0  0  0  0  0  0  0  0
   20.4100   17.2542   23.6483 H   0  0  0  0  0  0  0  0  0  0  0  0
   19.7094   18.2013   21.8233 C   0  0  0  0  0  0  0  0  0  0  0  0
   18.7562   18.6528   22.1272 H   0  0  0  0  0  0  0  0  0  0  0  0
   19.4625   17.1749   21.5187 H   0  0  0  0  0  0  0  0  0  0  0  0
   20.2680   18.9328   20.5756 C   0  0  0  0  0  0  0  0  0  0  0  0
   21.1708   18.4184   20.2176 H   0  0  0  0  0  0  0  0  0  0  0  0
   19.5295   18.8460   19.7662 H   0  0  0  0  0  0  0  0  0  0  0  0
   20.5821   20.4293   20.7941 C   0  0  0  0  0  0  0  0  0  0  0  0
   21.4690   20.5635   21.4246 H   0  0  0  0  0  0  0  0  0  0  0  0
   20.7910   20.9196   19.8345 H   0  0  0  0  0  0  0  0  0  0  0  0
   19.7359   20.9509   21.2595 H   0  0  0  0  0  0  0  0  0  0  0  0
  1  2  1  0  0  0  0
  1  3  1  0  0  0  0
  1  4  1  0  0  0  0
  1  5  1  0  0  0  0
  5  6  1  0  0  0  0
  5  7  1  0  0  0  0
  5  8  1  0  0  0  0
  8  9  1  0  0  0  0
  8 10  1  0  0  0  0
  8 11  1  0  0  0  0
 11 12  1  0  0  0  0
 11 13  1  0  0  0  0
 11 14  1  0  0  0  0
 14 15  1  0  0  0  0
 14 16  1  0  0  0  0
 14 17  1  0  0  0  0
 17 18  1  0  0  0  0
 17 19  1  0  0  0  0
 17 20  1  0  0  0  0
M  END
> <VConfSearch Rank>
270

> <Conf_Id>
65

> <Delta U+W>
2.949

> <U+W>
-8.829

> <U>
49.435

> <W>
-58.263

> <W(PB)>
-60.125

> <W(SA)>
1.862

> <Valence>
3.797

> <Coulomb>
45.253

> <VdW>
0.384

> <VdW6>
-5.596

> <VdW12>
5.980

> <Bond>
0.198

> <Angle>
1.369

> <Pdih>
2.230

> <Idih>
0.000

> <Tether>
0.000

$$$$
VeraChem MOL file


 20 19  0  0  0  0  0  0  0  0999 V2000     
   20.8848   17.9238   21.1952 N   0  3  0  0  0  0  0  0  0  0  0  0
   21.7987   17.7200   20.7770 H   0  0  0  0  0  0  0  0  0  0  0  0
   20.9837   17.8234   22.2101 H   0  0  0  0  0  0  0  0  0  0  0  0
   20.2418   17.1916   20.8775 H   0  0  0  0  0  0  0  0  0  0  0  0
   20.3900   19.3077   20.8220 C   0  0  0  0  0  0  0  0  0  0  0  0
   20.3091   19.3348   19.7320 H   0  0  0  0  0  0  0  0  0  0  0  0
   21.1411   20.0422   21.1247 H   0  0  0  0  0  0  0  0  0  0  0  0
   19.0236   19.6717   21.4374 C   0  0  0  0  0  0  0  0  0  0  0  0
   18.5734   20.4536   20.8114 H   0  0  0  0  0  0  0  0  0  0  0  0
   18.3453   18.8105   21.3725 H   0  0  0  0  0  0  0  0  0  0  0  0
   19.0753   20.2038   22.8948 C   0  0  0  0  0  0  0  0  0  0  0  0
   18.0494   20.4728   23.1826 H   0  0  0  0  0  0  0  0  0  0  0  0
   19.6452   21.1426   22.9307 H   0  0  0  0  0  0  0  0  0  0  0  0
   19.6235   19.2082   23.9487 C   0  0  0  0  0  0  0  0  0  0  0  0
   19.0729   19.3551   24.8886 H   0  0  0  0  0  0  0  0  0  0  0  0
   19.4164   18.1734   23.6442 H   0  0  0  0  0  0  0  0  0  0  0  0
   21.1286   19.4067   24.2470 C   0  0  0  0  0  0  0  0  0  0  0  0
   21.7466   19.3466   23.3448 H   0  0  0  0  0  0  0  0  0  0  0  0
   21.3055   20.3903   24.7014 H   0  0  0  0  0  0  0  0  0  0  0  0
   21.4863   18.6473   24.9545 H   0  0  0  0  0  0  0  0  0  0  0  0
  1  2  1  0  0  0  0
  1  3  1  0  0  0  0
  1  4  1  0  0  0  0
  1  5  1  0  0  0  0
  5  6  1  0  0  0  0
  5  7  1  0  0  0  0
  5  8  1  0  0  0  0
  8  9  1  0  0  0  0
  8 10  1  0  0  0  0
  8 11  1  0  0  0  0
 11 12  1  0  0  0  0
 11 13  1  0  0  0  0
 11 14  1  0  0  0  0
 14 15  1  0  0  0  0
 14 16  1  0  0  0  0
 14 17  1  0  0  0  0
 17 18  1  0  0  0  0
 17 19  1  0  0  0  0
 17 20  1  0  0  0  0
M  END
> <VConfSearch Rank>
271

> <Conf_Id>
77

> <Delta U+W>
5.366

> <U+W>
-6.412

> <U>
51.542

> <W>
-57.954

> <W(PB)>
-59.811

> <W(SA)>
1.857

> <Valence>
5.347

> <Coulomb>
45.870

> <VdW>
0.325

> <VdW6>
-6.161

> <VdW12>
6.486

> <Bond>
0.201

> <Angle>
1.484

> <Pdih>
3.662

> <Idih>
0.000

> <Tether>
0.000

$$$$
VeraChem MOL file


 20 19  0  0  0  0  0  0  0  0999 V2000     
   19.9135   19.3483   20.5294 N   0  3  0  0  0  0  0  0  0  0  0  0
   20.0487   20.3163   20.2211 H   0  0  0  0  0  0  0  0  0  0  0  0
   20.8112   19.0164   20.8950 H   0  0  0  0  0  0  0  0  0  0  0  0
   19.7007   18.7957   19.6921 H   0  0  0  0  0  0  0  0  0  0  0  0
   18.8172   19.2378   21.5713 C   0  0  0  0  0  0  0  0  0  0  0  0
   18.6703   18.1823   21.8152 H   0  0  0  0  0  0  0  0  0  0  0  0
   17.8988   19.6101   21.1093 H   0  0  0  0  0  0  0  0  0  0  0  0
   19.0937   20.0397   22.8592 C   0  0  0  0  0  0  0  0  0  0  0  0
   19.5099   21.0230   22.6029 H   0  0  0  0  0  0  0  0  0  0  0  0
   18.1275   20.2411   23.3406 H   0  0  0  0  0  0  0  0  0  0  0  0
   20.0011   19.3287   23.8989 C   0  0  0  0  0  0  0  0  0  0  0  0
   19.5150   18.4093   24.2536 H   0  0  0  0  0  0  0  0  0  0  0  0
   20.0671   19.9834   24.7790 H   0  0  0  0  0  0  0  0  0  0  0  0
   21.4432   19.0184   23.4230 C   0  0  0  0  0  0  0  0  0  0  0  0
   21.7685   19.7553   22.6763 H   0  0  0  0  0  0  0  0  0  0  0  0
   22.1268   19.1403   24.2752 H   0  0  0  0  0  0  0  0  0  0  0  0
   21.6092   17.5766   22.8868 C   0  0  0  0  0  0  0  0  0  0  0  0
   22.6283   17.4187   22.5104 H   0  0  0  0  0  0  0  0  0  0  0  0
   21.4359   16.8450   23.6869 H   0  0  0  0  0  0  0  0  0  0  0  0
   20.9095   17.3474   22.0760 H   0  0  0  0  0  0  0  0  0  0  0  0
  1  2  1  0  0  0  0
  1  3  1  0  0  0  0
  1  4  1  0  0  0  0
  1  5  1  0  0  0  0
  5  6  1  0  0  0  0
  5  7  1  0  0  0  0
  5  8  1  0  0  0  0
  8  9  1  0  0  0  0
  8 10  1  0  0  0  0
  8 11  1  0  0  0  0
 11 12  1  0  0  0  0
 11 13  1  0  0  0  0
 11 14  1  0  0  0  0
 14 15  1  0  0  0  0
 14 16  1  0  0  0  0
 14 17  1  0  0  0  0
 17 18  1  0  0  0  0
 17 19  1  0  0  0  0
 17 20  1  0  0  0  0
M  END
> <VConfSearch Rank>
272

> <Conf_Id>
67

> <Delta U+W>
5.353

> <U+W>
-6.425

> <U>
51.541

> <W>
-57.966

> <W(PB)>
-59.821

> <W(SA)>
1.855

> <Valence>
5.347

> <Coulomb>
45.870

> <VdW>
0.325

> <VdW6>
-6.161

> <VdW12>
6.486

> <Bond>
0.201

> <Angle>
1.485

> <Pdih>
3.662

> <Idih>
0.000

> <Tether>
0.000

$$$$
VeraChem MOL file


 20 19  0  0  0  0  0  0  0  0999 V2000     
   20.1309   17.0577   24.9252 N   0  3  0  0  0  0  0  0  0  0  0  0
   19.1960   16.6658   24.7741 H   0  0  0  0  0  0  0  0  0  0  0  0
   20.7208   16.2939   25.2718 H   0  0  0  0  0  0  0  0  0  0  0  0
   20.0520   17.7405   25.6854 H   0  0  0  0  0  0  0  0  0  0  0  0
   20.6962   17.6776   23.6632 C   0  0  0  0  0  0  0  0  0  0  0  0
   20.7806   16.8905   22.9090 H   0  0  0  0  0  0  0  0  0  0  0  0
   21.7007   18.0459   23.8888 H   0  0  0  0  0  0  0  0  0  0  0  0
   19.8334   18.8288   23.1158 C   0  0  0  0  0  0  0  0  0  0  0  0
   18.8212   18.4582   22.9057 H   0  0  0  0  0  0  0  0  0  0  0  0
   19.7381   19.6097   23.8820 H   0  0  0  0  0  0  0  0  0  0  0  0
   20.4437   19.4321   21.8311 C   0  0  0  0  0  0  0  0  0  0  0  0
   20.5425   18.6470   21.0685 H   0  0  0  0  0  0  0  0  0  0  0  0
   21.4583   19.7972   22.0437 H   0  0  0  0  0  0  0  0  0  0  0  0
   19.5856   20.5892   21.2723 C   0  0  0  0  0  0  0  0  0  0  0  0
   18.5703   20.2278   21.0563 H   0  0  0  0  0  0  0  0  0  0  0  0
   19.4860   21.3778   22.0313 H   0  0  0  0  0  0  0  0  0  0  0  0
   20.1991   21.1887   19.9889 C   0  0  0  0  0  0  0  0  0  0  0  0
   20.2798   20.4312   19.1984 H   0  0  0  0  0  0  0  0  0  0  0  0
   19.5761   22.0081   19.6074 H   0  0  0  0  0  0  0  0  0  0  0  0
   21.2026   21.5904   20.1810 H   0  0  0  0  0  0  0  0  0  0  0  0
  1  2  1  0  0  0  0
  1  3  1  0  0  0  0
  1  4  1  0  0  0  0
  1  5  1  0  0  0  0
  5  6  1  0  0  0  0
  5  7  1  0  0  0  0
  5  8  1  0  0  0  0
  8  9  1  0  0  0  0
  8 10  1  0  0  0  0
  8 11  1  0  0  0  0
 11 12  1  0  0  0  0
 11 13  1  0  0  0  0
 11 14  1  0  0  0  0
 14 15  1  0  0  0  0
 14 16  1  0  0  0  0
 14 17  1  0  0  0  0
 17 18  1  0  0  0  0
 17 19  1  0  0  0  0
 17 20  1  0  0  0  0
M  END
> <VConfSearch Rank>
273

> <Conf_Id>
72

> <Delta U+W>
0.000

> <U+W>
-11.778

> <U>
45.772

> <W>
-57.550

> <W(PB)>
-59.511

> <W(SA)>
1.961

> <Valence>
1.299

> <Coulomb>
44.177

> <VdW>
0.297

> <VdW6>
-3.490

> <VdW12>
3.786

> <Bond>
0.096

> <Angle>
0.381

> <Pdih>
0.822

> <Idih>
0.000

> <Tether>
0.000

$$$$
VeraChem MOL file


 20 19  0  0  0  0  0  0  0  0999 V2000     
   17.8199   17.3061   21.9203 N   0  3  0  0  0  0  0  0  0  0  0  0
   17.8438   17.5379   20.9223 H   0  0  0  0  0  0  0  0  0  0  0  0
   18.3338   16.4272   22.0379 H   0  0  0  0  0  0  0  0  0  0  0  0
   16.8412   17.1120   22.1569 H   0  0  0  0  0  0  0  0  0  0  0  0
   18.3958   18.4177   22.7743 C   0  0  0  0  0  0  0  0  0  0  0  0
   18.3102   18.1170   23.8220 H   0  0  0  0  0  0  0  0  0  0  0  0
   17.7842   19.3113   22.6226 H   0  0  0  0  0  0  0  0  0  0  0  0
   19.8656   18.7344   22.4448 C   0  0  0  0  0  0  0  0  0  0  0  0
   20.4734   17.8304   22.5831 H   0  0  0  0  0  0  0  0  0  0  0  0
   19.9422   19.0175   21.3874 H   0  0  0  0  0  0  0  0  0  0  0  0
   20.4120   19.8713   23.3405 C   0  0  0  0  0  0  0  0  0  0  0  0
   20.2567   19.6021   24.3946 H   0  0  0  0  0  0  0  0  0  0  0  0
   19.8328   20.7891   23.1680 H   0  0  0  0  0  0  0  0  0  0  0  0
   21.9172   20.1604   23.1227 C   0  0  0  0  0  0  0  0  0  0  0  0
   22.2450   20.9011   23.8654 H   0  0  0  0  0  0  0  0  0  0  0  0
   22.5026   19.2508   23.3175 H   0  0  0  0  0  0  0  0  0  0  0  0
   22.2423   20.6950   21.7092 C   0  0  0  0  0  0  0  0  0  0  0  0
   21.6486   21.5891   21.4786 H   0  0  0  0  0  0  0  0  0  0  0  0
   23.3028   20.9691   21.6368 H   0  0  0  0  0  0  0  0  0  0  0  0
   22.0439   19.9414   20.9371 H   0  0  0  0  0  0  0  0  0  0  0  0
  1  2  1  0  0  0  0
  1  3  1  0  0  0  0
  1  4  1  0  0  0  0
  1  5  1  0  0  0  0
  5  6  1  0  0  0  0
  5  7  1  0  0  0  0
  5  8  1  0  0  0  0
  8  9  1  0  0  0  0
  8 10  1  0  0  0  0
  8 11  1  0  0  0  0
 11 12  1  0  0  0  0
 11 13  1  0  0  0  0
 11 14  1  0  0  0  0
 14 15  1  0  0  0  0
 14 16  1  0  0  0  0
 14 17  1  0  0  0  0
 17 18  1  0  0  0  0
 17 19  1  0  0  0  0
 17 20  1  0  0  0  0
M  END
> <VConfSearch Rank>
274

> <Conf_Id>
42

> <Delta U+W>
0.508

> <U+W>
-11.270

> <U>
46.486

> <W>
-57.756

> <W(PB)>
-59.705

> <W(SA)>
1.949

> <Valence>
1.806

> <Coulomb>
44.248

> <VdW>
0.433

> <VdW6>
-4.089

> <VdW12>
4.522

> <Bond>
0.131

> <Angle>
0.628

> <Pdih>
1.047

> <Idih>
0.000

> <Tether>
0.000

$$$$
VeraChem MOL file


 20 19  0  0  0  0  0  0  0  0999 V2000     
   22.3499   20.5606   21.0832 N   0  3  0  0  0  0  0  0  0  0  0  0
   22.9371   20.7396   21.9039 H   0  0  0  0  0  0  0  0  0  0  0  0
   22.6953   19.6997   20.6475 H   0  0  0  0  0  0  0  0  0  0  0  0
   22.5275   21.3216   20.4192 H   0  0  0  0  0  0  0  0  0  0  0  0
   20.8822   20.4623   21.4473 C   0  0  0  0  0  0  0  0  0  0  0  0
   20.3158   20.3019   20.5258 H   0  0  0  0  0  0  0  0  0  0  0  0
   20.5760   21.4204   21.8760 H   0  0  0  0  0  0  0  0  0  0  0  0
   20.5805   19.3289   22.4441 C   0  0  0  0  0  0  0  0  0  0  0  0
   20.9078   18.3752   22.0111 H   0  0  0  0  0  0  0  0  0  0  0  0
   21.1633   19.4853   23.3616 H   0  0  0  0  0  0  0  0  0  0  0  0
   19.0736   19.2670   22.7885 C   0  0  0  0  0  0  0  0  0  0  0  0
   18.4936   19.0645   21.8773 H   0  0  0  0  0  0  0  0  0  0  0  0
   18.7481   20.2531   23.1484 H   0  0  0  0  0  0  0  0  0  0  0  0
   18.7290   18.2109   23.8667 C   0  0  0  0  0  0  0  0  0  0  0  0
   19.2891   18.4237   24.7881 H   0  0  0  0  0  0  0  0  0  0  0  0
   17.6651   18.3055   24.1257 H   0  0  0  0  0  0  0  0  0  0  0  0
   19.0042   16.7585   23.4149 C   0  0  0  0  0  0  0  0  0  0  0  0
   20.0754   16.5802   23.2596 H   0  0  0  0  0  0  0  0  0  0  0  0
   18.6592   16.0474   24.1766 H   0  0  0  0  0  0  0  0  0  0  0  0
   18.4777   16.5291   22.4794 H   0  0  0  0  0  0  0  0  0  0  0  0
  1  2  1  0  0  0  0
  1  3  1  0  0  0  0
  1  4  1  0  0  0  0
  1  5  1  0  0  0  0
  5  6  1  0  0  0  0
  5  7  1  0  0  0  0
  5  8  1  0  0  0  0
  8  9  1  0  0  0  0
  8 10  1  0  0  0  0
  8 11  1  0  0  0  0
 11 12  1  0  0  0  0
 11 13  1  0  0  0  0
 11 14  1  0  0  0  0
 14 15  1  0  0  0  0
 14 16  1  0  0  0  0
 14 17  1  0  0  0  0
 17 18  1  0  0  0  0
 17 19  1  0  0  0  0
 17 20  1  0  0  0  0
M  END
> <VConfSearch Rank>
275

> <Conf_Id>
41

> <Delta U+W>
0.515

> <U+W>
-11.263

> <U>
46.486

> <W>
-57.749

> <W(PB)>
-59.685

> <W(SA)>
1.936

> <Valence>
1.806

> <Coulomb>
44.248

> <VdW>
0.433

> <VdW6>
-4.089

> <VdW12>
4.522

> <Bond>
0.131

> <Angle>
0.628

> <Pdih>
1.047

> <Idih>
0.000

> <Tether>
0.000

$$$$
VeraChem MOL file


 20 19  0  0  0  0  0  0  0  0999 V2000     
   22.2531   20.1908   23.9071 N   0  3  0  0  0  0  0  0  0  0  0  0
   23.0158   20.1044   24.5870 H   0  0  0  0  0  0  0  0  0  0  0  0
   22.6644   20.0554   22.9790 H   0  0  0  0  0  0  0  0  0  0  0  0
   21.9216   21.1594   23.9531 H   0  0  0  0  0  0  0  0  0  0  0  0
   21.1392   19.1989   24.1820 C   0  0  0  0  0  0  0  0  0  0  0  0
   20.7828   19.3762   25.2004 H   0  0  0  0  0  0  0  0  0  0  0  0
   21.5629   18.1918   24.1410 H   0  0  0  0  0  0  0  0  0  0  0  0
   19.9538   19.3033   23.2023 C   0  0  0  0  0  0  0  0  0  0  0  0
   19.1615   18.6325   23.5572 H   0  0  0  0  0  0  0  0  0  0  0  0
   19.5416   20.3205   23.2330 H   0  0  0  0  0  0  0  0  0  0  0  0
   20.3434   18.9309   21.7495 C   0  0  0  0  0  0  0  0  0  0  0  0
   20.7337   17.9040   21.7230 H   0  0  0  0  0  0  0  0  0  0  0  0
   21.1615   19.5810   21.4124 H   0  0  0  0  0  0  0  0  0  0  0  0
   19.1740   19.0653   20.7439 C   0  0  0  0  0  0  0  0  0  0  0  0
   18.7889   20.0946   20.7566 H   0  0  0  0  0  0  0  0  0  0  0  0
   19.5609   18.8953   19.7293 H   0  0  0  0  0  0  0  0  0  0  0  0
   18.0174   18.0739   21.0067 C   0  0  0  0  0  0  0  0  0  0  0  0
   17.5138   18.2833   21.9584 H   0  0  0  0  0  0  0  0  0  0  0  0
   17.2627   18.1454   20.2128 H   0  0  0  0  0  0  0  0  0  0  0  0
   18.3818   17.0386   21.0301 H   0  0  0  0  0  0  0  0  0  0  0  0
  1  2  1  0  0  0  0
  1  3  1  0  0  0  0
  1  4  1  0  0  0  0
  1  5  1  0  0  0  0
  5  6  1  0  0  0  0
  5  7  1  0  0  0  0
  5  8  1  0  0  0  0
  8  9  1  0  0  0  0
  8 10  1  0  0  0  0
  8 11  1  0  0  0  0
 11 12  1  0  0  0  0
 11 13  1  0  0  0  0
 11 14  1  0  0  0  0
 14 15  1  0  0  0  0
 14 16  1  0  0  0  0
 14 17  1  0  0  0  0
 17 18  1  0  0  0  0
 17 19  1  0  0  0  0
 17 20  1  0  0  0  0
M  END
> <VConfSearch Rank>
276

> <Conf_Id>
33

> <Delta U+W>
0.703

> <U+W>
-11.075

> <U>
47.080

> <W>
-58.154

> <W(PB)>
-60.053

> <W(SA)>
1.899

> <Valence>
1.943

> <Coulomb>
44.572

> <VdW>
0.565

> <VdW6>
-4.575

> <VdW12>
5.139

> <Bond>
0.158

> <Angle>
0.700

> <Pdih>
1.085

> <Idih>
0.000

> <Tether>
0.000

$$$$
VeraChem MOL file


 20 19  0  0  0  0  0  0  0  0999 V2000     
   19.4165   16.4671   22.6916 N   0  3  0  0  0  0  0  0  0  0  0  0
   18.9617   15.6221   22.3303 H   0  0  0  0  0  0  0  0  0  0  0  0
   20.1867   16.1570   23.2923 H   0  0  0  0  0  0  0  0  0  0  0  0
   18.7346   16.9387   23.2929 H   0  0  0  0  0  0  0  0  0  0  0  0
   19.9011   17.3679   21.5717 C   0  0  0  0  0  0  0  0  0  0  0  0
   19.0384   17.6421   20.9585 H   0  0  0  0  0  0  0  0  0  0  0  0
   20.5869   16.7843   20.9516 H   0  0  0  0  0  0  0  0  0  0  0  0
   20.6162   18.6428   22.0605 C   0  0  0  0  0  0  0  0  0  0  0  0
   21.4716   18.3646   22.6903 H   0  0  0  0  0  0  0  0  0  0  0  0
   21.0266   19.1581   21.1832 H   0  0  0  0  0  0  0  0  0  0  0  0
   19.6737   19.5980   22.8354 C   0  0  0  0  0  0  0  0  0  0  0  0
   19.2376   19.0662   23.6914 H   0  0  0  0  0  0  0  0  0  0  0  0
   18.8324   19.8900   22.1917 H   0  0  0  0  0  0  0  0  0  0  0  0
   20.3831   20.8677   23.3661 C   0  0  0  0  0  0  0  0  0  0  0  0
   19.6775   21.4283   23.9951 H   0  0  0  0  0  0  0  0  0  0  0  0
   21.2173   20.5811   24.0217 H   0  0  0  0  0  0  0  0  0  0  0  0
   20.8985   21.8000   22.2459 C   0  0  0  0  0  0  0  0  0  0  0  0
   20.0890   22.0760   21.5577 H   0  0  0  0  0  0  0  0  0  0  0  0
   21.3047   22.7258   22.6736 H   0  0  0  0  0  0  0  0  0  0  0  0
   21.6994   21.3280   21.6637 H   0  0  0  0  0  0  0  0  0  0  0  0
  1  2  1  0  0  0  0
  1  3  1  0  0  0  0
  1  4  1  0  0  0  0
  1  5  1  0  0  0  0
  5  6  1  0  0  0  0
  5  7  1  0  0  0  0
  5  8  1  0  0  0  0
  8  9  1  0  0  0  0
  8 10  1  0  0  0  0
  8 11  1  0  0  0  0
 11 12  1  0  0  0  0
 11 13  1  0  0  0  0
 11 14  1  0  0  0  0
 14 15  1  0  0  0  0
 14 16  1  0  0  0  0
 14 17  1  0  0  0  0
 17 18  1  0  0  0  0
 17 19  1  0  0  0  0
 17 20  1  0  0  0  0
M  END
> <VConfSearch Rank>
277

> <Conf_Id>
24

> <Delta U+W>
0.847

> <U+W>
-10.931

> <U>
47.080

> <W>
-58.011

> <W(PB)>
-59.914

> <W(SA)>
1.903

> <Valence>
1.943

> <Coulomb>
44.572

> <VdW>
0.565

> <VdW6>
-4.575

> <VdW12>
5.140

> <Bond>
0.158

> <Angle>
0.700

> <Pdih>
1.085

> <Idih>
0.000

> <Tether>
0.000

$$$$
VeraChem MOL file


 20 19  0  0  0  0  0  0  0  0999 V2000     
   21.3924   21.0853   20.9312 N   0  3  0  0  0  0  0  0  0  0  0  0
   20.9551   21.8584   20.4187 H   0  0  0  0  0  0  0  0  0  0  0  0
   21.8537   21.4944   21.7498 H   0  0  0  0  0  0  0  0  0  0  0  0
   22.1295   20.7081   20.3272 H   0  0  0  0  0  0  0  0  0  0  0  0
   20.3822   20.0252   21.3209 C   0  0  0  0  0  0  0  0  0  0  0  0
   19.9105   19.6552   20.4066 H   0  0  0  0  0  0  0  0  0  0  0  0
   19.6143   20.5028   21.9351 H   0  0  0  0  0  0  0  0  0  0  0  0
   21.0072   18.8485   22.0938 C   0  0  0  0  0  0  0  0  0  0  0  0
   21.8049   18.4024   21.4851 H   0  0  0  0  0  0  0  0  0  0  0  0
   21.4889   19.2199   23.0073 H   0  0  0  0  0  0  0  0  0  0  0  0
   19.9754   17.7486   22.4484 C   0  0  0  0  0  0  0  0  0  0  0  0
   20.4884   16.9387   22.9851 H   0  0  0  0  0  0  0  0  0  0  0  0
   19.5966   17.3020   21.5186 H   0  0  0  0  0  0  0  0  0  0  0  0
   18.7712   18.2345   23.2951 C   0  0  0  0  0  0  0  0  0  0  0  0
   18.1826   18.9706   22.7307 H   0  0  0  0  0  0  0  0  0  0  0  0
   18.0994   17.3824   23.4698 H   0  0  0  0  0  0  0  0  0  0  0  0
   19.1811   18.8330   24.6599 C   0  0  0  0  0  0  0  0  0  0  0  0
   18.2919   19.0745   25.2565 H   0  0  0  0  0  0  0  0  0  0  0  0
   19.7889   18.1232   25.2359 H   0  0  0  0  0  0  0  0  0  0  0  0
   19.7569   19.7588   24.5371 H   0  0  0  0  0  0  0  0  0  0  0  0
  1  2  1  0  0  0  0
  1  3  1  0  0  0  0
  1  4  1  0  0  0  0
  1  5  1  0  0  0  0
  5  6  1  0  0  0  0
  5  7  1  0  0  0  0
  5  8  1  0  0  0  0
  8  9  1  0  0  0  0
  8 10  1  0  0  0  0
  8 11  1  0  0  0  0
 11 12  1  0  0  0  0
 11 13  1  0  0  0  0
 11 14  1  0  0  0  0
 14 15  1  0  0  0  0
 14 16  1  0  0  0  0
 14 17  1  0  0  0  0
 17 18  1  0  0  0  0
 17 19  1  0  0  0  0
 17 20  1  0  0  0  0
M  END
> <VConfSearch Rank>
278

> <Conf_Id>
64

> <Delta U+W>
0.707

> <U+W>
-11.070

> <U>
47.077

> <W>
-58.148

> <W(PB)>
-60.054

> <W(SA)>
1.906

> <Valence>
2.039

> <Coulomb>
44.655

> <VdW>
0.383

> <VdW6>
-4.912

> <VdW12>
5.295

> <Bond>
0.159

> <Angle>
0.856

> <Pdih>
1.024

> <Idih>
0.000

> <Tether>
0.000

$$$$
VeraChem MOL file


 20 19  0  0  0  0  0  0  0  0999 V2000     
   22.9438   18.9897   22.3867 N   0  3  0  0  0  0  0  0  0  0  0  0
   23.3232   18.4232   21.6216 H   0  0  0  0  0  0  0  0  0  0  0  0
   22.9847   19.9685   22.0859 H   0  0  0  0  0  0  0  0  0  0  0  0
   23.5909   18.8938   23.1764 H   0  0  0  0  0  0  0  0  0  0  0  0
   21.5360   18.5695   22.7580 C   0  0  0  0  0  0  0  0  0  0  0  0
   21.2096   19.1920   23.5953 H   0  0  0  0  0  0  0  0  0  0  0  0
   21.5713   17.5301   23.0954 H   0  0  0  0  0  0  0  0  0  0  0  0
   20.5376   18.7021   21.5926 C   0  0  0  0  0  0  0  0  0  0  0  0
   20.5082   19.7434   21.2472 H   0  0  0  0  0  0  0  0  0  0  0  0
   20.8964   18.1062   20.7430 H   0  0  0  0  0  0  0  0  0  0  0  0
   19.1114   18.2279   21.9682 C   0  0  0  0  0  0  0  0  0  0  0  0
   19.1402   17.1521   22.1899 H   0  0  0  0  0  0  0  0  0  0  0  0
   18.4571   18.3382   21.0923 H   0  0  0  0  0  0  0  0  0  0  0  0
   18.4752   18.9684   23.1724 C   0  0  0  0  0  0  0  0  0  0  0  0
   17.4801   18.5413   23.3602 H   0  0  0  0  0  0  0  0  0  0  0  0
   19.0593   18.7824   24.0840 H   0  0  0  0  0  0  0  0  0  0  0  0
   18.3294   20.4910   22.9502 C   0  0  0  0  0  0  0  0  0  0  0  0
   17.7661   20.7040   22.0325 H   0  0  0  0  0  0  0  0  0  0  0  0
   17.7915   20.9521   23.7886 H   0  0  0  0  0  0  0  0  0  0  0  0
   19.3073   20.9827   22.8758 H   0  0  0  0  0  0  0  0  0  0  0  0
  1  2  1  0  0  0  0
  1  3  1  0  0  0  0
  1  4  1  0  0  0  0
  1  5  1  0  0  0  0
  5  6  1  0  0  0  0
  5  7  1  0  0  0  0
  5  8  1  0  0  0  0
  8  9  1  0  0  0  0
  8 10  1  0  0  0  0
  8 11  1  0  0  0  0
 11 12  1  0  0  0  0
 11 13  1  0  0  0  0
 11 14  1  0  0  0  0
 14 15  1  0  0  0  0
 14 16  1  0  0  0  0
 14 17  1  0  0  0  0
 17 18  1  0  0  0  0
 17 19  1  0  0  0  0
 17 20  1  0  0  0  0
M  END
> <VConfSearch Rank>
279

> <Conf_Id>
22

> <Delta U+W>
0.731

> <U+W>
-11.047

> <U>
47.078

> <W>
-58.125

> <W(PB)>
-60.031

> <W(SA)>
1.906

> <Valence>
2.039

> <Coulomb>
44.655

> <VdW>
0.383

> <VdW6>
-4.913

> <VdW12>
5.296

> <Bond>
0.159

> <Angle>
0.856

> <Pdih>
1.024

> <Idih>
0.000

> <Tether>
0.000

$$$$
VeraChem MOL file


 20 19  0  0  0  0  0  0  0  0999 V2000     
   22.3632   20.5743   21.5618 N   0  3  0  0  0  0  0  0  0  0  0  0
   22.7853   20.9177   22.4303 H   0  0  0  0  0  0  0  0  0  0  0  0
   23.0533   19.9642   21.1124 H   0  0  0  0  0  0  0  0  0  0  0  0
   22.2414   21.3871   20.9486 H   0  0  0  0  0  0  0  0  0  0  0  0
   21.0522   19.8571   21.8140 C   0  0  0  0  0  0  0  0  0  0  0  0
   20.6467   19.5438   20.8482 H   0  0  0  0  0  0  0  0  0  0  0  0
   20.3629   20.5750   22.2643 H   0  0  0  0  0  0  0  0  0  0  0  0
   21.2004   18.6341   22.7365 C   0  0  0  0  0  0  0  0  0  0  0  0
   21.9837   17.9795   22.3318 H   0  0  0  0  0  0  0  0  0  0  0  0
   21.5502   18.9617   23.7245 H   0  0  0  0  0  0  0  0  0  0  0  0
   19.9007   17.8046   22.8936 C   0  0  0  0  0  0  0  0  0  0  0  0
   20.1469   16.9163   23.4919 H   0  0  0  0  0  0  0  0  0  0  0  0
   19.5745   17.4227   21.9163 H   0  0  0  0  0  0  0  0  0  0  0  0
   18.7334   18.5461   23.5954 C   0  0  0  0  0  0  0  0  0  0  0  0
   18.1046   17.7993   24.1003 H   0  0  0  0  0  0  0  0  0  0  0  0
   19.1198   19.2008   24.3890 H   0  0  0  0  0  0  0  0  0  0  0  0
   17.8300   19.3490   22.6299 C   0  0  0  0  0  0  0  0  0  0  0  0
   18.3643   20.1768   22.1521 H   0  0  0  0  0  0  0  0  0  0  0  0
   17.4260   18.7029   21.8398 H   0  0  0  0  0  0  0  0  0  0  0  0
   16.9790   19.7798   23.1732 H   0  0  0  0  0  0  0  0  0  0  0  0
  1  2  1  0  0  0  0
  1  3  1  0  0  0  0
  1  4  1  0  0  0  0
  1  5  1  0  0  0  0
  5  6  1  0  0  0  0
  5  7  1  0  0  0  0
  5  8  1  0  0  0  0
  8  9  1  0  0  0  0
  8 10  1  0  0  0  0
  8 11  1  0  0  0  0
 11 12  1  0  0  0  0
 11 13  1  0  0  0  0
 11 14  1  0  0  0  0
 14 15  1  0  0  0  0
 14 16  1  0  0  0  0
 14 17  1  0  0  0  0
 17 18  1  0  0  0  0
 17 19  1  0  0  0  0
 17 20  1  0  0  0  0
M  END
> <VConfSearch Rank>
280

> <Conf_Id>
61

> <Delta U+W>
2.669

> <U+W>
-9.108

> <U>
48.916

> <W>
-58.025

> <W(PB)>
-59.935

> <W(SA)>
1.911

> <Valence>
3.785

> <Coulomb>
44.716

> <VdW>
0.415

> <VdW6>
-4.836

> <VdW12>
5.251

> <Bond>
0.175

> <Angle>
1.195

> <Pdih>
2.415

> <Idih>
0.000

> <Tether>
0.000

$$$$
VeraChem MOL file


 20 19  0  0  0  0  0  0  0  0999 V2000     
   19.3443   20.9231   23.4850 N   0  3  0  0  0  0  0  0  0  0  0  0
   18.6633   21.2774   24.1649 H   0  0  0  0  0  0  0  0  0  0  0  0
   19.8086   21.7406   23.0769 H   0  0  0  0  0  0  0  0  0  0  0  0
   18.8137   20.4717   22.7355 H   0  0  0  0  0  0  0  0  0  0  0  0
   20.3379   19.9741   24.1274 C   0  0  0  0  0  0  0  0  0  0  0  0
   19.7854   19.1546   24.5947 H   0  0  0  0  0  0  0  0  0  0  0  0
   20.8459   20.5331   24.9180 H   0  0  0  0  0  0  0  0  0  0  0  0
   21.3951   19.4069   23.1568 C   0  0  0  0  0  0  0  0  0  0  0  0
   21.7608   20.2010   22.4924 H   0  0  0  0  0  0  0  0  0  0  0  0
   22.2613   19.0920   23.7539 H   0  0  0  0  0  0  0  0  0  0  0  0
   20.9205   18.1852   22.3286 C   0  0  0  0  0  0  0  0  0  0  0  0
   20.6131   17.3789   23.0089 H   0  0  0  0  0  0  0  0  0  0  0  0
   21.7816   17.7983   21.7663 H   0  0  0  0  0  0  0  0  0  0  0  0
   19.7728   18.4891   21.3372 C   0  0  0  0  0  0  0  0  0  0  0  0
   18.8553   18.7328   21.8873 H   0  0  0  0  0  0  0  0  0  0  0  0
   20.0300   19.3646   20.7246 H   0  0  0  0  0  0  0  0  0  0  0  0
   19.4867   17.2863   20.4129 C   0  0  0  0  0  0  0  0  0  0  0  0
   18.6642   17.5145   19.7227 H   0  0  0  0  0  0  0  0  0  0  0  0
   20.3688   17.0308   19.8114 H   0  0  0  0  0  0  0  0  0  0  0  0
   19.2017   16.4001   20.9950 H   0  0  0  0  0  0  0  0  0  0  0  0
  1  2  1  0  0  0  0
  1  3  1  0  0  0  0
  1  4  1  0  0  0  0
  1  5  1  0  0  0  0
  5  6  1  0  0  0  0
  5  7  1  0  0  0  0
  5  8  1  0  0  0  0
  8  9  1  0  0  0  0
  8 10  1  0  0  0  0
  8 11  1  0  0  0  0
 11 12  1  0  0  0  0
 11 13  1  0  0  0  0
 11 14  1  0  0  0  0
 14 15  1  0  0  0  0
 14 16  1  0  0  0  0
 14 17  1  0  0  0  0
 17 18  1  0  0  0  0
 17 19  1  0  0  0  0
 17 20  1  0  0  0  0
M  END
> <VConfSearch Rank>
281

> <Conf_Id>
69

> <Delta U+W>
2.811

> <U+W>
-8.967

> <U>
49.216

> <W>
-58.183

> <W(PB)>
-60.064

> <W(SA)>
1.881

> <Valence>
2.929

> <Coulomb>
46.006

> <VdW>
0.281

> <VdW6>
-4.909

> <VdW12>
5.190

> <Bond>
0.156

> <Angle>
0.974

> <Pdih>
1.799

> <Idih>
0.000

> <Tether>
0.000

$$$$
VeraChem MOL file


 20 19  0  0  0  0  0  0  0  0999 V2000     
   20.7861   19.0958   20.2426 N   0  3  0  0  0  0  0  0  0  0  0  0
   21.2779   18.5821   20.9783 H   0  0  0  0  0  0  0  0  0  0  0  0
   20.2024   18.4197   19.7400 H   0  0  0  0  0  0  0  0  0  0  0  0
   21.4956   19.4256   19.5797 H   0  0  0  0  0  0  0  0  0  0  0  0
   19.9648   20.2414   20.8026 C   0  0  0  0  0  0  0  0  0  0  0  0
   19.4890   20.7370   19.9520 H   0  0  0  0  0  0  0  0  0  0  0  0
   20.6422   20.9577   21.2752 H   0  0  0  0  0  0  0  0  0  0  0  0
   18.8739   19.8114   21.8059 C   0  0  0  0  0  0  0  0  0  0  0  0
   18.1108   20.6007   21.8274 H   0  0  0  0  0  0  0  0  0  0  0  0
   18.3633   18.9094   21.4433 H   0  0  0  0  0  0  0  0  0  0  0  0
   19.3790   19.6004   23.2565 C   0  0  0  0  0  0  0  0  0  0  0  0
   18.5068   19.4134   23.8981 H   0  0  0  0  0  0  0  0  0  0  0  0
   19.8348   20.5301   23.6243 H   0  0  0  0  0  0  0  0  0  0  0  0
   20.3808   18.4338   23.4235 C   0  0  0  0  0  0  0  0  0  0  0  0
   19.9748   17.5233   22.9607 H   0  0  0  0  0  0  0  0  0  0  0  0
   21.3218   18.6698   22.9111 H   0  0  0  0  0  0  0  0  0  0  0  0
   20.6874   18.1566   24.9108 C   0  0  0  0  0  0  0  0  0  0  0  0
   19.7773   17.8764   25.4571 H   0  0  0  0  0  0  0  0  0  0  0  0
   21.4065   17.3332   25.0117 H   0  0  0  0  0  0  0  0  0  0  0  0
   21.1187   19.0416   25.3966 H   0  0  0  0  0  0  0  0  0  0  0  0
  1  2  1  0  0  0  0
  1  3  1  0  0  0  0
  1  4  1  0  0  0  0
  1  5  1  0  0  0  0
  5  6  1  0  0  0  0
  5  7  1  0  0  0  0
  5  8  1  0  0  0  0
  8  9  1  0  0  0  0
  8 10  1  0  0  0  0
  8 11  1  0  0  0  0
 11 12  1  0  0  0  0
 11 13  1  0  0  0  0
 11 14  1  0  0  0  0
 14 15  1  0  0  0  0
 14 16  1  0  0  0  0
 14 17  1  0  0  0  0
 17 18  1  0  0  0  0
 17 19  1  0  0  0  0
 17 20  1  0  0  0  0
M  END
> <VConfSearch Rank>
282

> <Conf_Id>
26

> <Delta U+W>
2.809

> <U+W>
-8.969

> <U>
49.216

> <W>
-58.185

> <W(PB)>
-60.088

> <W(SA)>
1.903

> <Valence>
2.929

> <Coulomb>
46.006

> <VdW>
0.281

> <VdW6>
-4.909

> <VdW12>
5.190

> <Bond>
0.156

> <Angle>
0.974

> <Pdih>
1.799

> <Idih>
0.000

> <Tether>
0.000

$$$$
VeraChem MOL file


 20 19  0  0  0  0  0  0  0  0999 V2000     
   22.3433   18.3011   22.9050 N   0  3  0  0  0  0  0  0  0  0  0  0
   22.4271   18.9493   22.1166 H   0  0  0  0  0  0  0  0  0  0  0  0
   22.8602   18.7101   23.6896 H   0  0  0  0  0  0  0  0  0  0  0  0
   22.8342   17.4407   22.6403 H   0  0  0  0  0  0  0  0  0  0  0  0
   20.8936   18.0361   23.2619 C   0  0  0  0  0  0  0  0  0  0  0  0
   20.8795   17.3168   24.0852 H   0  0  0  0  0  0  0  0  0  0  0  0
   20.4102   17.5722   22.3981 H   0  0  0  0  0  0  0  0  0  0  0  0
   20.1159   19.3021   23.6750 C   0  0  0  0  0  0  0  0  0  0  0  0
   19.1054   19.0100   23.9883 H   0  0  0  0  0  0  0  0  0  0  0  0
   20.5895   19.7408   24.5632 H   0  0  0  0  0  0  0  0  0  0  0  0
   20.0251   20.3780   22.5610 C   0  0  0  0  0  0  0  0  0  0  0  0
   21.0265   20.7848   22.3660 H   0  0  0  0  0  0  0  0  0  0  0  0
   19.4290   21.2227   22.9331 H   0  0  0  0  0  0  0  0  0  0  0  0
   19.4162   19.8809   21.2249 C   0  0  0  0  0  0  0  0  0  0  0  0
   19.4206   20.7126   20.5066 H   0  0  0  0  0  0  0  0  0  0  0  0
   20.0508   19.0996   20.7851 H   0  0  0  0  0  0  0  0  0  0  0  0
   17.9700   19.3549   21.3684 C   0  0  0  0  0  0  0  0  0  0  0  0
   17.3176   20.1124   21.8218 H   0  0  0  0  0  0  0  0  0  0  0  0
   17.5544   19.0994   20.3851 H   0  0  0  0  0  0  0  0  0  0  0  0
   17.9299   18.4508   21.9884 H   0  0  0  0  0  0  0  0  0  0  0  0
  1  2  1  0  0  0  0
  1  3  1  0  0  0  0
  1  4  1  0  0  0  0
  1  5  1  0  0  0  0
  5  6  1  0  0  0  0
  5  7  1  0  0  0  0
  5  8  1  0  0  0  0
  8  9  1  0  0  0  0
  8 10  1  0  0  0  0
  8 11  1  0  0  0  0
 11 12  1  0  0  0  0
 11 13  1  0  0  0  0
 11 14  1  0  0  0  0
 14 15  1  0  0  0  0
 14 16  1  0  0  0  0
 14 17  1  0  0  0  0
 17 18  1  0  0  0  0
 17 19  1  0  0  0  0
 17 20  1  0  0  0  0
M  END
> <VConfSearch Rank>
283

> <Conf_Id>
2

> <Delta U+W>
0.994

> <U+W>
-10.784

> <U>
47.562

> <W>
-58.346

> <W(PB)>
-60.221

> <W(SA)>
1.875

> <Valence>
2.149

> <Coulomb>
45.034

> <VdW>
0.378

> <VdW6>
-5.599

> <VdW12>
5.977

> <Bond>
0.185

> <Angle>
0.935

> <Pdih>
1.028

> <Idih>
0.000

> <Tether>
0.000

$$$$
VeraChem MOL file


 20 19  0  0  0  0  0  0  0  0999 V2000     
   21.4442   20.6222   23.8295 N   0  3  0  0  0  0  0  0  0  0  0  0
   22.0161   20.2210   24.5792 H   0  0  0  0  0  0  0  0  0  0  0  0
   21.9617   20.4978   22.9545 H   0  0  0  0  0  0  0  0  0  0  0  0
   21.3875   21.6308   24.0047 H   0  0  0  0  0  0  0  0  0  0  0  0
   20.0708   19.9830   23.7647 C   0  0  0  0  0  0  0  0  0  0  0  0
   19.5035   20.4761   22.9709 H   0  0  0  0  0  0  0  0  0  0  0  0
   19.5664   20.1804   24.7145 H   0  0  0  0  0  0  0  0  0  0  0  0
   20.1063   18.4624   23.5105 C   0  0  0  0  0  0  0  0  0  0  0  0
   20.6488   17.9737   24.3306 H   0  0  0  0  0  0  0  0  0  0  0  0
   19.0815   18.0721   23.5553 H   0  0  0  0  0  0  0  0  0  0  0  0
   20.7567   18.0639   22.1595 C   0  0  0  0  0  0  0  0  0  0  0  0
   20.7070   16.9716   22.0518 H   0  0  0  0  0  0  0  0  0  0  0  0
   21.8265   18.3111   22.1842 H   0  0  0  0  0  0  0  0  0  0  0  0
   20.1178   18.7235   20.9106 C   0  0  0  0  0  0  0  0  0  0  0  0
   20.2421   19.8142   20.9508 H   0  0  0  0  0  0  0  0  0  0  0  0
   20.6665   18.3902   20.0186 H   0  0  0  0  0  0  0  0  0  0  0  0
   18.6219   18.3780   20.7326 C   0  0  0  0  0  0  0  0  0  0  0  0
   18.0133   18.7917   21.5463 H   0  0  0  0  0  0  0  0  0  0  0  0
   18.2406   18.7940   19.7910 H   0  0  0  0  0  0  0  0  0  0  0  0
   18.4681   17.2915   20.7059 H   0  0  0  0  0  0  0  0  0  0  0  0
  1  2  1  0  0  0  0
  1  3  1  0  0  0  0
  1  4  1  0  0  0  0
  1  5  1  0  0  0  0
  5  6  1  0  0  0  0
  5  7  1  0  0  0  0
  5  8  1  0  0  0  0
  8  9  1  0  0  0  0
  8 10  1  0  0  0  0
  8 11  1  0  0  0  0
 11 12  1  0  0  0  0
 11 13  1  0  0  0  0
 11 14  1  0  0  0  0
 14 15  1  0  0  0  0
 14 16  1  0  0  0  0
 14 17  1  0  0  0  0
 17 18  1  0  0  0  0
 17 19  1  0  0  0  0
 17 20  1  0  0  0  0
M  END
> <VConfSearch Rank>
284

> <Conf_Id>
1

> <Delta U+W>
1.032

> <U+W>
-10.746

> <U>
47.562

> <W>
-58.308

> <W(PB)>
-60.184

> <W(SA)>
1.877

> <Valence>
2.149

> <Coulomb>
45.035

> <VdW>
0.378

> <VdW6>
-5.599

> <VdW12>
5.978

> <Bond>
0.185

> <Angle>
0.935

> <Pdih>
1.028

> <Idih>
0.000

> <Tether>
0.000

$$$$
VeraChem MOL file


 20 19  0  0  0  0  0  0  0  0999 V2000     
   22.5114   19.4348   22.0668 N   0  3  0  0  0  0  0  0  0  0  0  0
   22.7908   19.9653   21.2358 H   0  0  0  0  0  0  0  0  0  0  0  0
   22.2204   20.1140   22.7759 H   0  0  0  0  0  0  0  0  0  0  0  0
   23.3547   18.9730   22.4230 H   0  0  0  0  0  0  0  0  0  0  0  0
   21.4118   18.4377   21.7566 C   0  0  0  0  0  0  0  0  0  0  0  0
   21.1866   17.8898   22.6729 H   0  0  0  0  0  0  0  0  0  0  0  0
   21.8100   17.7257   21.0286 H   0  0  0  0  0  0  0  0  0  0  0  0
   20.1297   19.0807   21.1861 C   0  0  0  0  0  0  0  0  0  0  0  0
   20.4006   19.6285   20.2738 H   0  0  0  0  0  0  0  0  0  0  0  0
   19.4374   18.2903   20.8672 H   0  0  0  0  0  0  0  0  0  0  0  0
   19.4018   20.0499   22.1561 C   0  0  0  0  0  0  0  0  0  0  0  0
   18.7967   20.7395   21.5514 H   0  0  0  0  0  0  0  0  0  0  0  0
   20.1250   20.6837   22.6855 H   0  0  0  0  0  0  0  0  0  0  0  0
   18.4500   19.3691   23.1732 C   0  0  0  0  0  0  0  0  0  0  0  0
   17.9279   20.1557   23.7360 H   0  0  0  0  0  0  0  0  0  0  0  0
   17.6693   18.8131   22.6355 H   0  0  0  0  0  0  0  0  0  0  0  0
   19.1497   18.4288   24.1793 C   0  0  0  0  0  0  0  0  0  0  0  0
   20.0100   18.9195   24.6524 H   0  0  0  0  0  0  0  0  0  0  0  0
   18.4530   18.1342   24.9746 H   0  0  0  0  0  0  0  0  0  0  0  0
   19.4925   17.5077   23.6933 H   0  0  0  0  0  0  0  0  0  0  0  0
  1  2  1  0  0  0  0
  1  3  1  0  0  0  0
  1  4  1  0  0  0  0
  1  5  1  0  0  0  0
  5  6  1  0  0  0  0
  5  7  1  0  0  0  0
  5  8  1  0  0  0  0
  8  9  1  0  0  0  0
  8 10  1  0  0  0  0
  8 11  1  0  0  0  0
 11 12  1  0  0  0  0
 11 13  1  0  0  0  0
 11 14  1  0  0  0  0
 14 15  1  0  0  0  0
 14 16  1  0  0  0  0
 14 17  1  0  0  0  0
 17 18  1  0  0  0  0
 17 19  1  0  0  0  0
 17 20  1  0  0  0  0
M  END
> <VConfSearch Rank>
285

> <Conf_Id>
80

> <Delta U+W>
2.920

> <U+W>
-8.857

> <U>
49.434

> <W>
-58.292

> <W(PB)>
-60.170

> <W(SA)>
1.879

> <Valence>
3.798

> <Coulomb>
45.253

> <VdW>
0.384

> <VdW6>
-5.595

> <VdW12>
5.979

> <Bond>
0.198

> <Angle>
1.368

> <Pdih>
2.231

> <Idih>
0.000

> <Tether>
0.000

$$$$
VeraChem MOL file


 20 19  0  0  0  0  0  0  0  0999 V2000     
   22.1432   17.9856   22.9223 N   0  3  0  0  0  0  0  0  0  0  0  0
   22.9753   18.4867   23.2488 H   0  0  0  0  0  0  0  0  0  0  0  0
   22.3201   16.9864   23.0697 H   0  0  0  0  0  0  0  0  0  0  0  0
   22.0790   18.1319   21.9108 H   0  0  0  0  0  0  0  0  0  0  0  0
   20.8890   18.4470   23.6392 C   0  0  0  0  0  0  0  0  0  0  0  0
   21.0157   18.2203   24.7013 H   0  0  0  0  0  0  0  0  0  0  0  0
   20.0519   17.8542   23.2673 H   0  0  0  0  0  0  0  0  0  0  0  0
   20.5955   19.9536   23.4751 C   0  0  0  0  0  0  0  0  0  0  0  0
   19.7547   20.2329   24.1237 H   0  0  0  0  0  0  0  0  0  0  0  0
   21.4630   20.5122   23.8508 H   0  0  0  0  0  0  0  0  0  0  0  0
   20.3012   20.4034   22.0186 C   0  0  0  0  0  0  0  0  0  0  0  0
   20.9892   19.9157   21.3161 H   0  0  0  0  0  0  0  0  0  0  0  0
   20.5230   21.4772   21.9469 H   0  0  0  0  0  0  0  0  0  0  0  0
   18.8364   20.2011   21.5521 C   0  0  0  0  0  0  0  0  0  0  0  0
   18.1581   20.7704   22.2030 H   0  0  0  0  0  0  0  0  0  0  0  0
   18.7310   20.6384   20.5493 H   0  0  0  0  0  0  0  0  0  0  0  0
   18.3771   18.7275   21.4952 C   0  0  0  0  0  0  0  0  0  0  0  0
   18.2462   18.3106   22.5007 H   0  0  0  0  0  0  0  0  0  0  0  0
   17.4085   18.6490   20.9846 H   0  0  0  0  0  0  0  0  0  0  0  0
   19.0964   18.1062   20.9463 H   0  0  0  0  0  0  0  0  0  0  0  0
  1  2  1  0  0  0  0
  1  3  1  0  0  0  0
  1  4  1  0  0  0  0
  1  5  1  0  0  0  0
  5  6  1  0  0  0  0
  5  7  1  0  0  0  0
  5  8  1  0  0  0  0
  8  9  1  0  0  0  0
  8 10  1  0  0  0  0
  8 11  1  0  0  0  0
 11 12  1  0  0  0  0
 11 13  1  0  0  0  0
 11 14  1  0  0  0  0
 14 15  1  0  0  0  0
 14 16  1  0  0  0  0
 14 17  1  0  0  0  0
 17 18  1  0  0  0  0
 17 19  1  0  0  0  0
 17 20  1  0  0  0  0
M  END
> <VConfSearch Rank>
286

> <Conf_Id>
65

> <Delta U+W>
2.949

> <U+W>
-8.829

> <U>
49.435

> <W>
-58.263

> <W(PB)>
-60.125

> <W(SA)>
1.862

> <Valence>
3.797

> <Coulomb>
45.253

> <VdW>
0.384

> <VdW6>
-5.596

> <VdW12>
5.980

> <Bond>
0.198

> <Angle>
1.369

> <Pdih>
2.230

> <Idih>
0.000

> <Tether>
0.000

$$$$
VeraChem MOL file


 20 19  0  0  0  0  0  0  0  0999 V2000     
   21.4397   20.2963   23.4531 N   0  3  0  0  0  0  0  0  0  0  0  0
   21.9774   20.2187   24.3229 H   0  0  0  0  0  0  0  0  0  0  0  0
   21.7134   19.5121   22.8533 H   0  0  0  0  0  0  0  0  0  0  0  0
   21.7466   21.1570   22.9889 H   0  0  0  0  0  0  0  0  0  0  0  0
   19.9456   20.2991   23.7124 C   0  0  0  0  0  0  0  0  0  0  0  0
   19.7341   21.1597   24.3527 H   0  0  0  0  0  0  0  0  0  0  0  0
   19.6838   19.3928   24.2650 H   0  0  0  0  0  0  0  0  0  0  0  0
   19.0881   20.3997   22.4345 C   0  0  0  0  0  0  0  0  0  0  0  0
   18.1089   20.8057   22.7211 H   0  0  0  0  0  0  0  0  0  0  0  0
   19.5274   21.1365   21.7490 H   0  0  0  0  0  0  0  0  0  0  0  0
   18.8454   19.0573   21.6936 C   0  0  0  0  0  0  0  0  0  0  0  0
   18.1813   19.2670   20.8436 H   0  0  0  0  0  0  0  0  0  0  0  0
   18.2845   18.3686   22.3406 H   0  0  0  0  0  0  0  0  0  0  0  0
   20.1165   18.3580   21.1479 C   0  0  0  0  0  0  0  0  0  0  0  0
   19.8664   17.8721   20.1942 H   0  0  0  0  0  0  0  0  0  0  0  0
   20.8899   19.0997   20.9071 H   0  0  0  0  0  0  0  0  0  0  0  0
   20.6689   17.2715   22.1009 C   0  0  0  0  0  0  0  0  0  0  0  0
   20.8785   17.6600   23.1033 H   0  0  0  0  0  0  0  0  0  0  0  0
   19.9474   16.4514   22.2107 H   0  0  0  0  0  0  0  0  0  0  0  0
   21.5976   16.8429   21.7021 H   0  0  0  0  0  0  0  0  0  0  0  0
  1  2  1  0  0  0  0
  1  3  1  0  0  0  0
  1  4  1  0  0  0  0
  1  5  1  0  0  0  0
  5  6  1  0  0  0  0
  5  7  1  0  0  0  0
  5  8  1  0  0  0  0
  8  9  1  0  0  0  0
  8 10  1  0  0  0  0
  8 11  1  0  0  0  0
 11 12  1  0  0  0  0
 11 13  1  0  0  0  0
 11 14  1  0  0  0  0
 14 15  1  0  0  0  0
 14 16  1  0  0  0  0
 14 17  1  0  0  0  0
 17 18  1  0  0  0  0
 17 19  1  0  0  0  0
 17 20  1  0  0  0  0
M  END
> <VConfSearch Rank>
287

> <Conf_Id>
77

> <Delta U+W>
5.366

> <U+W>
-6.412

> <U>
51.542

> <W>
-57.954

> <W(PB)>
-59.811

> <W(SA)>
1.857

> <Valence>
5.347

> <Coulomb>
45.870

> <VdW>
0.325

> <VdW6>
-6.161

> <VdW12>
6.486

> <Bond>
0.201

> <Angle>
1.484

> <Pdih>
3.662

> <Idih>
0.000

> <Tether>
0.000

$$$$
VeraChem MOL file


 20 19  0  0  0  0  0  0  0  0999 V2000     
   19.8399   18.9709   24.3933 N   0  3  0  0  0  0  0  0  0  0  0  0
   19.5445   18.0578   24.7532 H   0  0  0  0  0  0  0  0  0  0  0  0
   20.7855   18.8584   24.0154 H   0  0  0  0  0  0  0  0  0  0  0  0
   19.9052   19.6020   25.1990 H   0  0  0  0  0  0  0  0  0  0  0  0
   18.8830   19.4972   23.3412 C   0  0  0  0  0  0  0  0  0  0  0  0
   19.2072   20.4971   23.0409 H   0  0  0  0  0  0  0  0  0  0  0  0
   17.9028   19.5872   23.8174 H   0  0  0  0  0  0  0  0  0  0  0  0
   18.7578   18.5918   22.0990 C   0  0  0  0  0  0  0  0  0  0  0  0
   18.7076   17.5397   22.4093 H   0  0  0  0  0  0  0  0  0  0  0  0
   17.7920   18.8090   21.6239 H   0  0  0  0  0  0  0  0  0  0  0  0
   19.8654   18.7818   21.0280 C   0  0  0  0  0  0  0  0  0  0  0  0
   19.8232   19.8022   20.6225 H   0  0  0  0  0  0  0  0  0  0  0  0
   19.6227   18.1210   20.1842 H   0  0  0  0  0  0  0  0  0  0  0  0
   21.3067   18.4541   21.4945 C   0  0  0  0  0  0  0  0  0  0  0  0
   21.2913   17.6875   22.2808 H   0  0  0  0  0  0  0  0  0  0  0  0
   21.8527   18.0033   20.6536 H   0  0  0  0  0  0  0  0  0  0  0  0
   22.0954   19.7032   21.9544 C   0  0  0  0  0  0  0  0  0  0  0  0
   23.0879   19.4185   22.3274 H   0  0  0  0  0  0  0  0  0  0  0  0
   22.2442   20.3959   21.1158 H   0  0  0  0  0  0  0  0  0  0  0  0
   21.5810   20.2553   22.7482 H   0  0  0  0  0  0  0  0  0  0  0  0
  1  2  1  0  0  0  0
  1  3  1  0  0  0  0
  1  4  1  0  0  0  0
  1  5  1  0  0  0  0
  5  6  1  0  0  0  0
  5  7  1  0  0  0  0
  5  8  1  0  0  0  0
  8  9  1  0  0  0  0
  8 10  1  0  0  0  0
  8 11  1  0  0  0  0
 11 12  1  0  0  0  0
 11 13  1  0  0  0  0
 11 14  1  0  0  0  0
 14 15  1  0  0  0  0
 14 16  1  0  0  0  0
 14 17  1  0  0  0  0
 17 18  1  0  0  0  0
 17 19  1  0  0  0  0
 17 20  1  0  0  0  0
M  END
> <VConfSearch Rank>
288

> <Conf_Id>
67

> <Delta U+W>
5.353

> <U+W>
-6.425

> <U>
51.541

> <W>
-57.966

> <W(PB)>
-59.821

> <W(SA)>
1.855

> <Valence>
5.347

> <Coulomb>
45.870

> <VdW>
0.325

> <VdW6>
-6.161

> <VdW12>
6.486

> <Bond>
0.201

> <Angle>
1.485

> <Pdih>
3.662

> <Idih>
0.000

> <Tether>
0.000

$$$$
VeraChem MOL file


 20 19  0  0  0  0  0  0  0  0999 V2000     
   18.9107   17.0617   20.3362 N   0  3  0  0  0  0  0  0  0  0  0  0
   18.1886   17.6755   19.9459 H   0  0  0  0  0  0  0  0  0  0  0  0
   19.2528   16.4780   19.5656 H   0  0  0  0  0  0  0  0  0  0  0  0
   18.4460   16.4345   21.0003 H   0  0  0  0  0  0  0  0  0  0  0  0
   20.0308   17.8475   20.9876 C   0  0  0  0  0  0  0  0  0  0  0  0
   20.4986   18.4688   20.2190 H   0  0  0  0  0  0  0  0  0  0  0  0
   20.7752   17.1347   21.3526 H   0  0  0  0  0  0  0  0  0  0  0  0
   19.5506   18.7354   22.1496 C   0  0  0  0  0  0  0  0  0  0  0  0
   18.7917   19.4389   21.7818 H   0  0  0  0  0  0  0  0  0  0  0  0
   19.0674   18.1094   22.9116 H   0  0  0  0  0  0  0  0  0  0  0  0
   20.7212   19.5181   22.7850 C   0  0  0  0  0  0  0  0  0  0  0  0
   21.2057   20.1393   22.0187 H   0  0  0  0  0  0  0  0  0  0  0  0
   21.4810   18.8114   23.1472 H   0  0  0  0  0  0  0  0  0  0  0  0
   20.2507   20.4134   23.9532 C   0  0  0  0  0  0  0  0  0  0  0  0
   19.4921   21.1233   23.5948 H   0  0  0  0  0  0  0  0  0  0  0  0
   19.7674   19.7956   24.7232 H   0  0  0  0  0  0  0  0  0  0  0  0
   21.4236   21.1934   24.5849 C   0  0  0  0  0  0  0  0  0  0  0  0
   21.9062   21.8472   23.8468 H   0  0  0  0  0  0  0  0  0  0  0  0
   21.0699   21.8229   25.4117 H   0  0  0  0  0  0  0  0  0  0  0  0
   22.1836   20.5092   24.9841 H   0  0  0  0  0  0  0  0  0  0  0  0
  1  2  1  0  0  0  0
  1  3  1  0  0  0  0
  1  4  1  0  0  0  0
  1  5  1  0  0  0  0
  5  6  1  0  0  0  0
  5  7  1  0  0  0  0
  5  8  1  0  0  0  0
  8  9  1  0  0  0  0
  8 10  1  0  0  0  0
  8 11  1  0  0  0  0
 11 12  1  0  0  0  0
 11 13  1  0  0  0  0
 11 14  1  0  0  0  0
 14 15  1  0  0  0  0
 14 16  1  0  0  0  0
 14 17  1  0  0  0  0
 17 18  1  0  0  0  0
 17 19  1  0  0  0  0
 17 20  1  0  0  0  0
M  END
> <VConfSearch Rank>
289

> <Conf_Id>
72

> <Delta U+W>
0.000

> <U+W>
-11.778

> <U>
45.772

> <W>
-57.550

> <W(PB)>
-59.511

> <W(SA)>
1.961

> <Valence>
1.299

> <Coulomb>
44.177

> <VdW>
0.297

> <VdW6>
-3.490

> <VdW12>
3.786

> <Bond>
0.096

> <Angle>
0.381

> <Pdih>
0.822

> <Idih>
0.000

> <Tether>
0.000

$$$$
VeraChem MOL file


 20 19  0  0  0  0  0  0  0  0999 V2000     
   17.5351   20.7129   22.1812 N   0  3  0  0  0  0  0  0  0  0  0  0
   16.9952   19.9330   22.5692 H   0  0  0  0  0  0  0  0  0  0  0  0
   17.6870   21.3824   22.9421 H   0  0  0  0  0  0  0  0  0  0  0  0
   16.9335   21.1772   21.4926 H   0  0  0  0  0  0  0  0  0  0  0  0
   18.8400   20.2484   21.5663 C   0  0  0  0  0  0  0  0  0  0  0  0
   19.3457   21.1227   21.1475 H   0  0  0  0  0  0  0  0  0  0  0  0
   18.6025   19.5643   20.7471 H   0  0  0  0  0  0  0  0  0  0  0  0
   19.7680   19.5468   22.5741 C   0  0  0  0  0  0  0  0  0  0  0  0
   19.9910   20.2318   23.4028 H   0  0  0  0  0  0  0  0  0  0  0  0
   19.2442   18.6821   23.0007 H   0  0  0  0  0  0  0  0  0  0  0  0
   21.0866   19.0924   21.9048 C   0  0  0  0  0  0  0  0  0  0  0  0
   21.5575   19.9580   21.4182 H   0  0  0  0  0  0  0  0  0  0  0  0
   20.8667   18.3712   21.1054 H   0  0  0  0  0  0  0  0  0  0  0  0
   22.1013   18.4727   22.8963 C   0  0  0  0  0  0  0  0  0  0  0  0
   23.0415   18.2763   22.3620 H   0  0  0  0  0  0  0  0  0  0  0  0
   22.3425   19.1996   23.6845 H   0  0  0  0  0  0  0  0  0  0  0  0
   21.6083   17.1553   23.5373 C   0  0  0  0  0  0  0  0  0  0  0  0
   21.3336   16.4206   22.7693 H   0  0  0  0  0  0  0  0  0  0  0  0
   22.3973   16.7117   24.1584 H   0  0  0  0  0  0  0  0  0  0  0  0
   20.7365   17.3216   24.1821 H   0  0  0  0  0  0  0  0  0  0  0  0
  1  2  1  0  0  0  0
  1  3  1  0  0  0  0
  1  4  1  0  0  0  0
  1  5  1  0  0  0  0
  5  6  1  0  0  0  0
  5  7  1  0  0  0  0
  5  8  1  0  0  0  0
  8  9  1  0  0  0  0
  8 10  1  0  0  0  0
  8 11  1  0  0  0  0
 11 12  1  0  0  0  0
 11 13  1  0  0  0  0
 11 14  1  0  0  0  0
 14 15  1  0  0  0  0
 14 16  1  0  0  0  0
 14 17  1  0  0  0  0
 17 18  1  0  0  0  0
 17 19  1  0  0  0  0
 17 20  1  0  0  0  0
M  END
> <VConfSearch Rank>
290

> <Conf_Id>
42

> <Delta U+W>
0.508

> <U+W>
-11.270

> <U>
46.486

> <W>
-57.756

> <W(PB)>
-59.705

> <W(SA)>
1.949

> <Valence>
1.806

> <Coulomb>
44.248

> <VdW>
0.433

> <VdW6>
-4.089

> <VdW12>
4.522

> <Bond>
0.131

> <Angle>
0.628

> <Pdih>
1.047

> <Idih>
0.000

> <Tether>
0.000

$$$$
VeraChem MOL file


 20 19  0  0  0  0  0  0  0  0999 V2000     
   19.0064   20.9305   24.5291 N   0  3  0  0  0  0  0  0  0  0  0  0
   19.1833   21.8060   24.0266 H   0  0  0  0  0  0  0  0  0  0  0  0
   18.0525   20.6370   24.2965 H   0  0  0  0  0  0  0  0  0  0  0  0
   19.0124   21.1557   25.5296 H   0  0  0  0  0  0  0  0  0  0  0  0
   20.0271   19.8641   24.1860 C   0  0  0  0  0  0  0  0  0  0  0  0
   19.7965   18.9736   24.7770 H   0  0  0  0  0  0  0  0  0  0  0  0
   21.0121   20.2305   24.4875 H   0  0  0  0  0  0  0  0  0  0  0  0
   20.0448   19.5023   22.6900 C   0  0  0  0  0  0  0  0  0  0  0  0
   19.0474   19.1531   22.3947 H   0  0  0  0  0  0  0  0  0  0  0  0
   20.2610   20.4025   22.0995 H   0  0  0  0  0  0  0  0  0  0  0  0
   21.1010   18.4138   22.3856 C   0  0  0  0  0  0  0  0  0  0  0  0
   20.8586   17.4972   22.9412 H   0  0  0  0  0  0  0  0  0  0  0  0
   22.0789   18.7502   22.7574 H   0  0  0  0  0  0  0  0  0  0  0  0
   21.2335   18.0857   20.8784 C   0  0  0  0  0  0  0  0  0  0  0  0
   21.4994   18.9953   20.3218 H   0  0  0  0  0  0  0  0  0  0  0  0
   22.0706   17.3868   20.7420 H   0  0  0  0  0  0  0  0  0  0  0  0
   19.9576   17.4590   20.2711 C   0  0  0  0  0  0  0  0  0  0  0  0
   19.1194   18.1667   20.2744 H   0  0  0  0  0  0  0  0  0  0  0  0
   20.1340   17.1626   19.2290 H   0  0  0  0  0  0  0  0  0  0  0  0
   19.6540   16.5629   20.8276 H   0  0  0  0  0  0  0  0  0  0  0  0
  1  2  1  0  0  0  0
  1  3  1  0  0  0  0
  1  4  1  0  0  0  0
  1  5  1  0  0  0  0
  5  6  1  0  0  0  0
  5  7  1  0  0  0  0
  5  8  1  0  0  0  0
  8  9  1  0  0  0  0
  8 10  1  0  0  0  0
  8 11  1  0  0  0  0
 11 12  1  0  0  0  0
 11 13  1  0  0  0  0
 11 14  1  0  0  0  0
 14 15  1  0  0  0  0
 14 16  1  0  0  0  0
 14 17  1  0  0  0  0
 17 18  1  0  0  0  0
 17 19  1  0  0  0  0
 17 20  1  0  0  0  0
M  END
> <VConfSearch Rank>
291

> <Conf_Id>
41

> <Delta U+W>
0.515

> <U+W>
-11.263

> <U>
46.486

> <W>
-57.749

> <W(PB)>
-59.685

> <W(SA)>
1.936

> <Valence>
1.806

> <Coulomb>
44.248

> <VdW>
0.433

> <VdW6>
-4.089

> <VdW12>
4.522

> <Bond>
0.131

> <Angle>
0.628

> <Pdih>
1.047

> <Idih>
0.000

> <Tether>
0.000

$$$$
VeraChem MOL file


 20 19  0  0  0  0  0  0  0  0999 V2000     
   17.7791   18.0964   23.4553 N   0  3  0  0  0  0  0  0  0  0  0  0
   16.9971   18.1092   24.1185 H   0  0  0  0  0  0  0  0  0  0  0  0
   17.4699   18.6021   22.6201 H   0  0  0  0  0  0  0  0  0  0  0  0
   17.9219   17.1191   23.1822 H   0  0  0  0  0  0  0  0  0  0  0  0
   19.0333   18.7051   24.0527 C   0  0  0  0  0  0  0  0  0  0  0  0
   19.2743   18.1426   24.9588 H   0  0  0  0  0  0  0  0  0  0  0  0
   18.8068   19.7348   24.3423 H   0  0  0  0  0  0  0  0  0  0  0  0
   20.2485   18.6883   23.1046 C   0  0  0  0  0  0  0  0  0  0  0  0
   21.1223   19.0377   23.6684 H   0  0  0  0  0  0  0  0  0  0  0  0
   20.4626   17.6548   22.8017 H   0  0  0  0  0  0  0  0  0  0  0  0
   20.0432   19.5778   21.8525 C   0  0  0  0  0  0  0  0  0  0  0  0
   19.8520   20.6145   22.1627 H   0  0  0  0  0  0  0  0  0  0  0  0
   19.1465   19.2468   21.3121 H   0  0  0  0  0  0  0  0  0  0  0  0
   21.2391   19.5446   20.8699 C   0  0  0  0  0  0  0  0  0  0  0  0
   21.4257   18.5112   20.5459 H   0  0  0  0  0  0  0  0  0  0  0  0
   20.9666   20.1052   19.9647 H   0  0  0  0  0  0  0  0  0  0  0  0
   22.5360   20.1483   21.4560 C   0  0  0  0  0  0  0  0  0  0  0  0
   22.9202   19.5482   22.2900 H   0  0  0  0  0  0  0  0  0  0  0  0
   23.3214   20.1876   20.6902 H   0  0  0  0  0  0  0  0  0  0  0  0
   22.3680   21.1715   21.8164 H   0  0  0  0  0  0  0  0  0  0  0  0
  1  2  1  0  0  0  0
  1  3  1  0  0  0  0
  1  4  1  0  0  0  0
  1  5  1  0  0  0  0
  5  6  1  0  0  0  0
  5  7  1  0  0  0  0
  5  8  1  0  0  0  0
  8  9  1  0  0  0  0
  8 10  1  0  0  0  0
  8 11  1  0  0  0  0
 11 12  1  0  0  0  0
 11 13  1  0  0  0  0
 11 14  1  0  0  0  0
 14 15  1  0  0  0  0
 14 16  1  0  0  0  0
 14 17  1  0  0  0  0
 17 18  1  0  0  0  0
 17 19  1  0  0  0  0
 17 20  1  0  0  0  0
M  END
> <VConfSearch Rank>
292

> <Conf_Id>
33

> <Delta U+W>
0.703

> <U+W>
-11.075

> <U>
47.080

> <W>
-58.154

> <W(PB)>
-60.053

> <W(SA)>
1.899

> <Valence>
1.943

> <Coulomb>
44.572

> <VdW>
0.565

> <VdW6>
-4.575

> <VdW12>
5.139

> <Bond>
0.158

> <Angle>
0.700

> <Pdih>
1.085

> <Idih>
0.000

> <Tether>
0.000

$$$$
VeraChem MOL file


 20 19  0  0  0  0  0  0  0  0999 V2000     
   21.7497   17.6520   24.1707 N   0  3  0  0  0  0  0  0  0  0  0  0
   22.0011   17.3148   25.1059 H   0  0  0  0  0  0  0  0  0  0  0  0
   22.0447   16.9308   23.5050 H   0  0  0  0  0  0  0  0  0  0  0  0
   22.3208   18.4827   23.9899 H   0  0  0  0  0  0  0  0  0  0  0  0
   20.2668   17.9503   24.0599 C   0  0  0  0  0  0  0  0  0  0  0  0
   20.0152   18.7062   24.8088 H   0  0  0  0  0  0  0  0  0  0  0  0
   19.7258   17.0331   24.3080 H   0  0  0  0  0  0  0  0  0  0  0  0
   19.8301   18.4374   22.6643 C   0  0  0  0  0  0  0  0  0  0  0  0
   20.0998   17.6841   21.9123 H   0  0  0  0  0  0  0  0  0  0  0  0
   18.7354   18.5092   22.6583 H   0  0  0  0  0  0  0  0  0  0  0  0
   20.4470   19.8084   22.2887 C   0  0  0  0  0  0  0  0  0  0  0  0
   21.5420   19.7406   22.3317 H   0  0  0  0  0  0  0  0  0  0  0  0
   20.1544   20.5619   23.0330 H   0  0  0  0  0  0  0  0  0  0  0  0
   20.0486   20.2970   20.8746 C   0  0  0  0  0  0  0  0  0  0  0  0
   20.6146   21.2108   20.6455 H   0  0  0  0  0  0  0  0  0  0  0  0
   20.3514   19.5527   20.1249 H   0  0  0  0  0  0  0  0  0  0  0  0
   18.5394   20.5982   20.7286 C   0  0  0  0  0  0  0  0  0  0  0  0
   18.2044   21.3168   21.4878 H   0  0  0  0  0  0  0  0  0  0  0  0
   18.3280   21.0305   19.7420 H   0  0  0  0  0  0  0  0  0  0  0  0
   17.9344   19.6883   20.8250 H   0  0  0  0  0  0  0  0  0  0  0  0
  1  2  1  0  0  0  0
  1  3  1  0  0  0  0
  1  4  1  0  0  0  0
  1  5  1  0  0  0  0
  5  6  1  0  0  0  0
  5  7  1  0  0  0  0
  5  8  1  0  0  0  0
  8  9  1  0  0  0  0
  8 10  1  0  0  0  0
  8 11  1  0  0  0  0
 11 12  1  0  0  0  0
 11 13  1  0  0  0  0
 11 14  1  0  0  0  0
 14 15  1  0  0  0  0
 14 16  1  0  0  0  0
 14 17  1  0  0  0  0
 17 18  1  0  0  0  0
 17 19  1  0  0  0  0
 17 20  1  0  0  0  0
M  END
> <VConfSearch Rank>
293

> <Conf_Id>
24

> <Delta U+W>
0.847

> <U+W>
-10.931

> <U>
47.080

> <W>
-58.011

> <W(PB)>
-59.914

> <W(SA)>
1.903

> <Valence>
1.943

> <Coulomb>
44.572

> <VdW>
0.565

> <VdW6>
-4.575

> <VdW12>
5.140

> <Bond>
0.158

> <Angle>
0.700

> <Pdih>
1.085

> <Idih>
0.000

> <Tether>
0.000

$$$$
VeraChem MOL file


 20 19  0  0  0  0  0  0  0  0999 V2000     
   21.8743   17.4115   23.6223 N   0  3  0  0  0  0  0  0  0  0  0  0
   22.8885   17.3588   23.4805 H   0  0  0  0  0  0  0  0  0  0  0  0
   21.7247   17.8128   24.5533 H   0  0  0  0  0  0  0  0  0  0  0  0
   21.5281   16.4473   23.6507 H   0  0  0  0  0  0  0  0  0  0  0  0
   21.1957   18.2251   22.5389 C   0  0  0  0  0  0  0  0  0  0  0  0
   21.4202   17.7592   21.5756 H   0  0  0  0  0  0  0  0  0  0  0  0
   21.6337   19.2266   22.5470 H   0  0  0  0  0  0  0  0  0  0  0  0
   19.6696   18.3245   22.7228 C   0  0  0  0  0  0  0  0  0  0  0  0
   19.2452   17.3123   22.7549 H   0  0  0  0  0  0  0  0  0  0  0  0
   19.4431   18.7837   23.6935 H   0  0  0  0  0  0  0  0  0  0  0  0
   18.9794   19.1196   21.5865 C   0  0  0  0  0  0  0  0  0  0  0  0
   17.8969   19.1410   21.7734 H   0  0  0  0  0  0  0  0  0  0  0  0
   19.1117   18.5768   20.6402 H   0  0  0  0  0  0  0  0  0  0  0  0
   19.4911   20.5716   21.4041 C   0  0  0  0  0  0  0  0  0  0  0  0
   20.5501   20.5670   21.1120 H   0  0  0  0  0  0  0  0  0  0  0  0
   18.9495   21.0310   20.5654 H   0  0  0  0  0  0  0  0  0  0  0  0
   19.3023   21.4520   22.6604 C   0  0  0  0  0  0  0  0  0  0  0  0
   19.5928   22.4894   22.4500 H   0  0  0  0  0  0  0  0  0  0  0  0
   18.2539   21.4565   22.9856 H   0  0  0  0  0  0  0  0  0  0  0  0
   19.9203   21.0997   23.4957 H   0  0  0  0  0  0  0  0  0  0  0  0
  1  2  1  0  0  0  0
  1  3  1  0  0  0  0
  1  4  1  0  0  0  0
  1  5  1  0  0  0  0
  5  6  1  0  0  0  0
  5  7  1  0  0  0  0
  5  8  1  0  0  0  0
  8  9  1  0  0  0  0
  8 10  1  0  0  0  0
  8 11  1  0  0  0  0
 11 12  1  0  0  0  0
 11 13  1  0  0  0  0
 11 14  1  0  0  0  0
 14 15  1  0  0  0  0
 14 16  1  0  0  0  0
 14 17  1  0  0  0  0
 17 18  1  0  0  0  0
 17 19  1  0  0  0  0
 17 20  1  0  0  0  0
M  END
> <VConfSearch Rank>
294

> <Conf_Id>
64

> <Delta U+W>
0.707

> <U+W>
-11.070

> <U>
47.077

> <W>
-58.148

> <W(PB)>
-60.054

> <W(SA)>
1.906

> <Valence>
2.039

> <Coulomb>
44.655

> <VdW>
0.383

> <VdW6>
-4.912

> <VdW12>
5.295

> <Bond>
0.159

> <Angle>
0.856

> <Pdih>
1.024

> <Idih>
0.000

> <Tether>
0.000

$$$$
VeraChem MOL file


 20 19  0  0  0  0  0  0  0  0999 V2000     
   21.6275   16.8875   21.6122 N   0  3  0  0  0  0  0  0  0  0  0  0
   22.2739   16.4975   22.3053 H   0  0  0  0  0  0  0  0  0  0  0  0
   20.7875   16.3005   21.6199 H   0  0  0  0  0  0  0  0  0  0  0  0
   22.0673   16.7654   20.6940 H   0  0  0  0  0  0  0  0  0  0  0  0
   21.3054   18.3413   21.8936 C   0  0  0  0  0  0  0  0  0  0  0  0
   20.6400   18.6970   21.1026 H   0  0  0  0  0  0  0  0  0  0  0  0
   22.2374   18.9104   21.8409 H   0  0  0  0  0  0  0  0  0  0  0  0
   20.6423   18.5594   23.2667 C   0  0  0  0  0  0  0  0  0  0  0  0
   19.7112   17.9813   23.3241 H   0  0  0  0  0  0  0  0  0  0  0  0
   21.3003   18.1613   24.0504 H   0  0  0  0  0  0  0  0  0  0  0  0
   20.3579   20.0529   23.5646 C   0  0  0  0  0  0  0  0  0  0  0  0
   21.3133   20.5922   23.6272 H   0  0  0  0  0  0  0  0  0  0  0  0
   19.8983   20.1366   24.5591 H   0  0  0  0  0  0  0  0  0  0  0  0
   19.4518   20.7627   22.5261 C   0  0  0  0  0  0  0  0  0  0  0  0
   19.3336   21.8137   22.8249 H   0  0  0  0  0  0  0  0  0  0  0  0
   19.9436   20.7827   21.5440 H   0  0  0  0  0  0  0  0  0  0  0  0
   18.0513   20.1225   22.3932 C   0  0  0  0  0  0  0  0  0  0  0  0
   17.5463   20.0718   23.3665 H   0  0  0  0  0  0  0  0  0  0  0  0
   17.4202   20.7151   21.7183 H   0  0  0  0  0  0  0  0  0  0  0  0
   18.1100   19.1069   21.9825 H   0  0  0  0  0  0  0  0  0  0  0  0
  1  2  1  0  0  0  0
  1  3  1  0  0  0  0
  1  4  1  0  0  0  0
  1  5  1  0  0  0  0
  5  6  1  0  0  0  0
  5  7  1  0  0  0  0
  5  8  1  0  0  0  0
  8  9  1  0  0  0  0
  8 10  1  0  0  0  0
  8 11  1  0  0  0  0
 11 12  1  0  0  0  0
 11 13  1  0  0  0  0
 11 14  1  0  0  0  0
 14 15  1  0  0  0  0
 14 16  1  0  0  0  0
 14 17  1  0  0  0  0
 17 18  1  0  0  0  0
 17 19  1  0  0  0  0
 17 20  1  0  0  0  0
M  END
> <VConfSearch Rank>
295

> <Conf_Id>
22

> <Delta U+W>
0.731

> <U+W>
-11.047

> <U>
47.078

> <W>
-58.125

> <W(PB)>
-60.031

> <W(SA)>
1.906

> <Valence>
2.039

> <Coulomb>
44.655

> <VdW>
0.383

> <VdW6>
-4.913

> <VdW12>
5.296

> <Bond>
0.159

> <Angle>
0.856

> <Pdih>
1.024

> <Idih>
0.000

> <Tether>
0.000

$$$$
VeraChem MOL file


 20 19  0  0  0  0  0  0  0  0999 V2000     
   21.8452   20.8967   21.1222 N   0  3  0  0  0  0  0  0  0  0  0  0
   21.3753   21.8001   21.2380 H   0  0  0  0  0  0  0  0  0  0  0  0
   22.7706   20.9811   21.5544 H   0  0  0  0  0  0  0  0  0  0  0  0
   21.9977   20.7675   20.1165 H   0  0  0  0  0  0  0  0  0  0  0  0
   21.0420   19.7596   21.7211 C   0  0  0  0  0  0  0  0  0  0  0  0
   21.5853   18.8286   21.5384 H   0  0  0  0  0  0  0  0  0  0  0  0
   20.0868   19.7143   21.1929 H   0  0  0  0  0  0  0  0  0  0  0  0
   20.7907   19.9268   23.2303 C   0  0  0  0  0  0  0  0  0  0  0  0
   21.7534   20.0912   23.7323 H   0  0  0  0  0  0  0  0  0  0  0  0
   20.1926   20.8312   23.4033 H   0  0  0  0  0  0  0  0  0  0  0  0
   20.0952   18.7090   23.8900 C   0  0  0  0  0  0  0  0  0  0  0  0
   20.0514   18.9003   24.9713 H   0  0  0  0  0  0  0  0  0  0  0  0
   20.7150   17.8094   23.7729 H   0  0  0  0  0  0  0  0  0  0  0  0
   18.6520   18.4332   23.3938 C   0  0  0  0  0  0  0  0  0  0  0  0
   18.0949   17.9470   24.2070 H   0  0  0  0  0  0  0  0  0  0  0  0
   18.1299   19.3795   23.1945 H   0  0  0  0  0  0  0  0  0  0  0  0
   18.5808   17.5100   22.1547 C   0  0  0  0  0  0  0  0  0  0  0  0
   19.0372   17.9656   21.2698 H   0  0  0  0  0  0  0  0  0  0  0  0
   19.0871   16.5548   22.3457 H   0  0  0  0  0  0  0  0  0  0  0  0
   17.5355   17.2867   21.9049 H   0  0  0  0  0  0  0  0  0  0  0  0
  1  2  1  0  0  0  0
  1  3  1  0  0  0  0
  1  4  1  0  0  0  0
  1  5  1  0  0  0  0
  5  6  1  0  0  0  0
  5  7  1  0  0  0  0
  5  8  1  0  0  0  0
  8  9  1  0  0  0  0
  8 10  1  0  0  0  0
  8 11  1  0  0  0  0
 11 12  1  0  0  0  0
 11 13  1  0  0  0  0
 11 14  1  0  0  0  0
 14 15  1  0  0  0  0
 14 16  1  0  0  0  0
 14 17  1  0  0  0  0
 17 18  1  0  0  0  0
 17 19  1  0  0  0  0
 17 20  1  0  0  0  0
M  END
> <VConfSearch Rank>
296

> <Conf_Id>
61

> <Delta U+W>
2.669

> <U+W>
-9.108

> <U>
48.916

> <W>
-58.025

> <W(PB)>
-59.935

> <W(SA)>
1.911

> <Valence>
3.785

> <Coulomb>
44.716

> <VdW>
0.415

> <VdW6>
-4.836

> <VdW12>
5.251

> <Bond>
0.175

> <Angle>
1.195

> <Pdih>
2.415

> <Idih>
0.000

> <Tether>
0.000

$$$$
VeraChem MOL file


 20 19  0  0  0  0  0  0  0  0999 V2000     
   22.1438   19.5894   23.3946 N   0  3  0  0  0  0  0  0  0  0  0  0
   23.1131   19.8713   23.2139 H   0  0  0  0  0  0  0  0  0  0  0  0
   22.0651   19.4283   24.4037 H   0  0  0  0  0  0  0  0  0  0  0  0
   22.0020   18.6874   22.9328 H   0  0  0  0  0  0  0  0  0  0  0  0
   21.1558   20.6346   22.9131 C   0  0  0  0  0  0  0  0  0  0  0  0
   21.3231   20.8075   21.8466 H   0  0  0  0  0  0  0  0  0  0  0  0
   21.3878   21.5608   23.4459 H   0  0  0  0  0  0  0  0  0  0  0  0
   19.6760   20.2727   23.1594 C   0  0  0  0  0  0  0  0  0  0  0  0
   19.5561   19.8391   24.1611 H   0  0  0  0  0  0  0  0  0  0  0  0
   19.1005   21.2079   23.1658 H   0  0  0  0  0  0  0  0  0  0  0  0
   19.0535   19.3400   22.0887 C   0  0  0  0  0  0  0  0  0  0  0  0
   19.1297   19.8148   21.1007 H   0  0  0  0  0  0  0  0  0  0  0  0
   17.9792   19.2463   22.3002 H   0  0  0  0  0  0  0  0  0  0  0  0
   19.6759   17.9253   22.0304 C   0  0  0  0  0  0  0  0  0  0  0  0
   20.7117   17.9845   21.6734 H   0  0  0  0  0  0  0  0  0  0  0  0
   19.7010   17.4860   23.0376 H   0  0  0  0  0  0  0  0  0  0  0  0
   18.8839   16.9942   21.0876 C   0  0  0  0  0  0  0  0  0  0  0  0
   19.3436   15.9981   21.0500 H   0  0  0  0  0  0  0  0  0  0  0  0
   17.8478   16.8731   21.4297 H   0  0  0  0  0  0  0  0  0  0  0  0
   18.8617   17.3937   20.0653 H   0  0  0  0  0  0  0  0  0  0  0  0
  1  2  1  0  0  0  0
  1  3  1  0  0  0  0
  1  4  1  0  0  0  0
  1  5  1  0  0  0  0
  5  6  1  0  0  0  0
  5  7  1  0  0  0  0
  5  8  1  0  0  0  0
  8  9  1  0  0  0  0
  8 10  1  0  0  0  0
  8 11  1  0  0  0  0
 11 12  1  0  0  0  0
 11 13  1  0  0  0  0
 11 14  1  0  0  0  0
 14 15  1  0  0  0  0
 14 16  1  0  0  0  0
 14 17  1  0  0  0  0
 17 18  1  0  0  0  0
 17 19  1  0  0  0  0
 17 20  1  0  0  0  0
M  END
> <VConfSearch Rank>
297

> <Conf_Id>
69

> <Delta U+W>
2.811

> <U+W>
-8.967

> <U>
49.216

> <W>
-58.183

> <W(PB)>
-60.064

> <W(SA)>
1.881

> <Valence>
2.929

> <Coulomb>
46.006

> <VdW>
0.281

> <VdW6>
-4.909

> <VdW12>
5.190

> <Bond>
0.156

> <Angle>
0.974

> <Pdih>
1.799

> <Idih>
0.000

> <Tether>
0.000

$$$$
VeraChem MOL file


 20 19  0  0  0  0  0  0  0  0999 V2000     
   21.6130   20.0286   23.8996 N   0  3  0  0  0  0  0  0  0  0  0  0
   20.9562   19.2964   24.1818 H   0  0  0  0  0  0  0  0  0  0  0  0
   22.5149   19.5747   23.7240 H   0  0  0  0  0  0  0  0  0  0  0  0
   21.7435   20.6444   24.7092 H   0  0  0  0  0  0  0  0  0  0  0  0
   21.1222   20.7935   22.6853 C   0  0  0  0  0  0  0  0  0  0  0  0
   21.8738   21.5566   22.4651 H   0  0  0  0  0  0  0  0  0  0  0  0
   20.1907   21.3026   22.9469 H   0  0  0  0  0  0  0  0  0  0  0  0
   20.9089   19.9236   21.4287 C   0  0  0  0  0  0  0  0  0  0  0  0
   20.9611   20.5841   20.5530 H   0  0  0  0  0  0  0  0  0  0  0  0
   21.7379   19.2119   21.3182 H   0  0  0  0  0  0  0  0  0  0  0  0
   19.5489   19.1806   21.3820 C   0  0  0  0  0  0  0  0  0  0  0  0
   19.4596   18.6929   20.4014 H   0  0  0  0  0  0  0  0  0  0  0  0
   18.7304   19.9118   21.4349 H   0  0  0  0  0  0  0  0  0  0  0  0
   19.3615   18.1158   22.4880 C   0  0  0  0  0  0  0  0  0  0  0  0
   20.2309   17.4438   22.5112 H   0  0  0  0  0  0  0  0  0  0  0  0
   19.2965   18.6009   23.4700 H   0  0  0  0  0  0  0  0  0  0  0  0
   18.0801   17.2843   22.2651 C   0  0  0  0  0  0  0  0  0  0  0  0
   18.1182   16.7473   21.3083 H   0  0  0  0  0  0  0  0  0  0  0  0
   17.9567   16.5404   23.0629 H   0  0  0  0  0  0  0  0  0  0  0  0
   17.1890   17.9254   22.2619 H   0  0  0  0  0  0  0  0  0  0  0  0
  1  2  1  0  0  0  0
  1  3  1  0  0  0  0
  1  4  1  0  0  0  0
  1  5  1  0  0  0  0
  5  6  1  0  0  0  0
  5  7  1  0  0  0  0
  5  8  1  0  0  0  0
  8  9  1  0  0  0  0
  8 10  1  0  0  0  0
  8 11  1  0  0  0  0
 11 12  1  0  0  0  0
 11 13  1  0  0  0  0
 11 14  1  0  0  0  0
 14 15  1  0  0  0  0
 14 16  1  0  0  0  0
 14 17  1  0  0  0  0
 17 18  1  0  0  0  0
 17 19  1  0  0  0  0
 17 20  1  0  0  0  0
M  END
> <VConfSearch Rank>
298

> <Conf_Id>
26

> <Delta U+W>
2.809

> <U+W>
-8.969

> <U>
49.216

> <W>
-58.185

> <W(PB)>
-60.088

> <W(SA)>
1.903

> <Valence>
2.929

> <Coulomb>
46.006

> <VdW>
0.281

> <VdW6>
-4.909

> <VdW12>
5.190

> <Bond>
0.156

> <Angle>
0.974

> <Pdih>
1.799

> <Idih>
0.000

> <Tether>
0.000

$$$$
VeraChem MOL file


 20 19  0  0  0  0  0  0  0  0999 V2000     
   18.4322   17.4806   22.1370 N   0  3  0  0  0  0  0  0  0  0  0  0
   19.3293   16.9944   22.2251 H   0  0  0  0  0  0  0  0  0  0  0  0
   17.8663   17.2216   22.9511 H   0  0  0  0  0  0  0  0  0  0  0  0
   17.9613   17.0956   21.3116 H   0  0  0  0  0  0  0  0  0  0  0  0
   18.6156   18.9820   22.0326 C   0  0  0  0  0  0  0  0  0  0  0  0
   17.6260   19.4307   21.9104 H   0  0  0  0  0  0  0  0  0  0  0  0
   19.1964   19.1916   21.1305 H   0  0  0  0  0  0  0  0  0  0  0  0
   19.3135   19.6077   23.2572 C   0  0  0  0  0  0  0  0  0  0  0  0
   19.3358   20.6980   23.1330 H   0  0  0  0  0  0  0  0  0  0  0  0
   18.7051   19.4207   24.1519 H   0  0  0  0  0  0  0  0  0  0  0  0
   20.7529   19.0818   23.4997 C   0  0  0  0  0  0  0  0  0  0  0  0
   20.7094   18.0220   23.7846 H   0  0  0  0  0  0  0  0  0  0  0  0
   21.1789   19.6049   24.3668 H   0  0  0  0  0  0  0  0  0  0  0  0
   21.7142   19.2384   22.2937 C   0  0  0  0  0  0  0  0  0  0  0  0
   22.6914   18.8164   22.5672 H   0  0  0  0  0  0  0  0  0  0  0  0
   21.3566   18.6436   21.4424 H   0  0  0  0  0  0  0  0  0  0  0  0
   21.9119   20.7069   21.8540 C   0  0  0  0  0  0  0  0  0  0  0  0
   22.2538   21.3274   22.6925 H   0  0  0  0  0  0  0  0  0  0  0  0
   22.6659   20.7721   21.0590 H   0  0  0  0  0  0  0  0  0  0  0  0
   20.9823   21.1389   21.4631 H   0  0  0  0  0  0  0  0  0  0  0  0
  1  2  1  0  0  0  0
  1  3  1  0  0  0  0
  1  4  1  0  0  0  0
  1  5  1  0  0  0  0
  5  6  1  0  0  0  0
  5  7  1  0  0  0  0
  5  8  1  0  0  0  0
  8  9  1  0  0  0  0
  8 10  1  0  0  0  0
  8 11  1  0  0  0  0
 11 12  1  0  0  0  0
 11 13  1  0  0  0  0
 11 14  1  0  0  0  0
 14 15  1  0  0  0  0
 14 16  1  0  0  0  0
 14 17  1  0  0  0  0
 17 18  1  0  0  0  0
 17 19  1  0  0  0  0
 17 20  1  0  0  0  0
M  END
> <VConfSearch Rank>
299

> <Conf_Id>
2

> <Delta U+W>
0.994

> <U+W>
-10.784

> <U>
47.562

> <W>
-58.346

> <W(PB)>
-60.221

> <W(SA)>
1.875

> <Valence>
2.149

> <Coulomb>
45.034

> <VdW>
0.378

> <VdW6>
-5.599

> <VdW12>
5.977

> <Bond>
0.185

> <Angle>
0.935

> <Pdih>
1.028

> <Idih>
0.000

> <Tether>
0.000

$$$$
VeraChem MOL file


 20 19  0  0  0  0  0  0  0  0999 V2000     
   22.4198   18.8469   21.5982 N   0  3  0  0  0  0  0  0  0  0  0  0
   22.6432   19.3464   20.7318 H   0  0  0  0  0  0  0  0  0  0  0  0
   22.4605   19.5299   22.3603 H   0  0  0  0  0  0  0  0  0  0  0  0
   23.1759   18.1730   21.7576 H   0  0  0  0  0  0  0  0  0  0  0  0
   21.0659   18.1684   21.5247 C   0  0  0  0  0  0  0  0  0  0  0  0
   20.9044   17.6295   22.4619 H   0  0  0  0  0  0  0  0  0  0  0  0
   21.1044   17.4352   20.7144 H   0  0  0  0  0  0  0  0  0  0  0  0
   19.8967   19.1432   21.2776 C   0  0  0  0  0  0  0  0  0  0  0  0
   20.0516   19.6541   20.3180 H   0  0  0  0  0  0  0  0  0  0  0  0
   18.9716   18.5642   21.1623 H   0  0  0  0  0  0  0  0  0  0  0  0
   19.7120   20.2026   22.3959 C   0  0  0  0  0  0  0  0  0  0  0  0
   18.8414   20.8266   22.1513 H   0  0  0  0  0  0  0  0  0  0  0  0
   20.5738   20.8835   22.3975 H   0  0  0  0  0  0  0  0  0  0  0  0
   19.5304   19.6193   23.8206 C   0  0  0  0  0  0  0  0  0  0  0  0
   20.4319   19.0704   24.1247 H   0  0  0  0  0  0  0  0  0  0  0  0
   19.4309   20.4524   24.5305 H   0  0  0  0  0  0  0  0  0  0  0  0
   18.2941   18.7014   23.9542 C   0  0  0  0  0  0  0  0  0  0  0  0
   18.3990   17.7936   23.3471 H   0  0  0  0  0  0  0  0  0  0  0  0
   18.1595   18.3870   24.9972 H   0  0  0  0  0  0  0  0  0  0  0  0
   17.3802   19.2218   23.6400 H   0  0  0  0  0  0  0  0  0  0  0  0
  1  2  1  0  0  0  0
  1  3  1  0  0  0  0
  1  4  1  0  0  0  0
  1  5  1  0  0  0  0
  5  6  1  0  0  0  0
  5  7  1  0  0  0  0
  5  8  1  0  0  0  0
  8  9  1  0  0  0  0
  8 10  1  0  0  0  0
  8 11  1  0  0  0  0
 11 12  1  0  0  0  0
 11 13  1  0  0  0  0
 11 14  1  0  0  0  0
 14 15  1  0  0  0  0
 14 16  1  0  0  0  0
 14 17  1  0  0  0  0
 17 18  1  0  0  0  0
 17 19  1  0  0  0  0
 17 20  1  0  0  0  0
M  END
> <VConfSearch Rank>
300

> <Conf_Id>
1

> <Delta U+W>
1.032

> <U+W>
-10.746

> <U>
47.562

> <W>
-58.308

> <W(PB)>
-60.184

> <W(SA)>
1.877

> <Valence>
2.149

> <Coulomb>
45.035

> <VdW>
0.378

> <VdW6>
-5.599

> <VdW12>
5.978

> <Bond>
0.185

> <Angle>
0.935

> <Pdih>
1.028

> <Idih>
0.000

> <Tether>
0.000

$$$$
VeraChem MOL file


 20 19  0  0  0  0  0  0  0  0999 V2000     
   19.2790   20.7639   23.8365 N   0  3  0  0  0  0  0  0  0  0  0  0
   18.6118   20.4817   24.5613 H   0  0  0  0  0  0  0  0  0  0  0  0
   20.2174   20.5644   24.1946 H   0  0  0  0  0  0  0  0  0  0  0  0
   19.2046   21.7823   23.7431 H   0  0  0  0  0  0  0  0  0  0  0  0
   19.0157   20.0571   22.5209 C   0  0  0  0  0  0  0  0  0  0  0  0
   19.7382   20.4255   21.7909 H   0  0  0  0  0  0  0  0  0  0  0  0
   18.0180   20.3513   22.1841 H   0  0  0  0  0  0  0  0  0  0  0  0
   19.0843   18.5180   22.6152 C   0  0  0  0  0  0  0  0  0  0  0  0
   18.3517   18.1899   23.3646 H   0  0  0  0  0  0  0  0  0  0  0  0
   18.7563   18.0803   21.6631 H   0  0  0  0  0  0  0  0  0  0  0  0
   20.4790   17.9518   22.9953 C   0  0  0  0  0  0  0  0  0  0  0  0
   20.3294   16.9557   23.4346 H   0  0  0  0  0  0  0  0  0  0  0  0
   20.9388   18.5547   23.7889 H   0  0  0  0  0  0  0  0  0  0  0  0
   21.4676   17.7918   21.8116 C   0  0  0  0  0  0  0  0  0  0  0  0
   22.3766   17.3004   22.1862 H   0  0  0  0  0  0  0  0  0  0  0  0
   21.0418   17.1096   21.0626 H   0  0  0  0  0  0  0  0  0  0  0  0
   21.8727   19.1166   21.1283 C   0  0  0  0  0  0  0  0  0  0  0  0
   22.1961   19.8631   21.8650 H   0  0  0  0  0  0  0  0  0  0  0  0
   22.7058   18.9486   20.4336 H   0  0  0  0  0  0  0  0  0  0  0  0
   21.0445   19.5340   20.5435 H   0  0  0  0  0  0  0  0  0  0  0  0
  1  2  1  0  0  0  0
  1  3  1  0  0  0  0
  1  4  1  0  0  0  0
  1  5  1  0  0  0  0
  5  6  1  0  0  0  0
  5  7  1  0  0  0  0
  5  8  1  0  0  0  0
  8  9  1  0  0  0  0
  8 10  1  0  0  0  0
  8 11  1  0  0  0  0
 11 12  1  0  0  0  0
 11 13  1  0  0  0  0
 11 14  1  0  0  0  0
 14 15  1  0  0  0  0
 14 16  1  0  0  0  0
 14 17  1  0  0  0  0
 17 18  1  0  0  0  0
 17 19  1  0  0  0  0
 17 20  1  0  0  0  0
M  END
> <VConfSearch Rank>
301

> <Conf_Id>
80

> <Delta U+W>
2.920

> <U+W>
-8.857

> <U>
49.434

> <W>
-58.292

> <W(PB)>
-60.170

> <W(SA)>
1.879

> <Valence>
3.798

> <Coulomb>
45.253

> <VdW>
0.384

> <VdW6>
-5.595

> <VdW12>
5.979

> <Bond>
0.198

> <Angle>
1.368

> <Pdih>
2.231

> <Idih>
0.000

> <Tether>
0.000

$$$$
VeraChem MOL file


 20 19  0  0  0  0  0  0  0  0999 V2000     
   22.3698   18.5189   21.9677 N   0  3  0  0  0  0  0  0  0  0  0  0
   22.8927   19.0366   21.2545 H   0  0  0  0  0  0  0  0  0  0  0  0
   23.0432   17.9164   22.4522 H   0  0  0  0  0  0  0  0  0  0  0  0
   21.7165   17.9022   21.4762 H   0  0  0  0  0  0  0  0  0  0  0  0
   21.6532   19.4484   22.9281 C   0  0  0  0  0  0  0  0  0  0  0  0
   22.4153   20.0406   23.4420 H   0  0  0  0  0  0  0  0  0  0  0  0
   21.1458   18.8348   23.6741 H   0  0  0  0  0  0  0  0  0  0  0  0
   20.6499   20.4004   22.2428 C   0  0  0  0  0  0  0  0  0  0  0  0
   20.2732   21.1228   22.9789 H   0  0  0  0  0  0  0  0  0  0  0  0
   21.1967   20.9907   21.4955 H   0  0  0  0  0  0  0  0  0  0  0  0
   19.4547   19.6942   21.5479 C   0  0  0  0  0  0  0  0  0  0  0  0
   19.7933   18.8001   21.0086 H   0  0  0  0  0  0  0  0  0  0  0  0
   19.0666   20.3720   20.7750 H   0  0  0  0  0  0  0  0  0  0  0  0
   18.2718   19.3325   22.4827 C   0  0  0  0  0  0  0  0  0  0  0  0
   17.8740   20.2455   22.9474 H   0  0  0  0  0  0  0  0  0  0  0  0
   17.4571   18.9274   21.8662 H   0  0  0  0  0  0  0  0  0  0  0  0
   18.6127   18.3030   23.5827 C   0  0  0  0  0  0  0  0  0  0  0  0
   19.2531   18.7424   24.3565 H   0  0  0  0  0  0  0  0  0  0  0  0
   17.6967   17.9578   24.0795 H   0  0  0  0  0  0  0  0  0  0  0  0
   19.1182   17.4236   23.1634 H   0  0  0  0  0  0  0  0  0  0  0  0
  1  2  1  0  0  0  0
  1  3  1  0  0  0  0
  1  4  1  0  0  0  0
  1  5  1  0  0  0  0
  5  6  1  0  0  0  0
  5  7  1  0  0  0  0
  5  8  1  0  0  0  0
  8  9  1  0  0  0  0
  8 10  1  0  0  0  0
  8 11  1  0  0  0  0
 11 12  1  0  0  0  0
 11 13  1  0  0  0  0
 11 14  1  0  0  0  0
 14 15  1  0  0  0  0
 14 16  1  0  0  0  0
 14 17  1  0  0  0  0
 17 18  1  0  0  0  0
 17 19  1  0  0  0  0
 17 20  1  0  0  0  0
M  END
> <VConfSearch Rank>
302

> <Conf_Id>
65

> <Delta U+W>
2.949

> <U+W>
-8.829

> <U>
49.435

> <W>
-58.263

> <W(PB)>
-60.125

> <W(SA)>
1.862

> <Valence>
3.797

> <Coulomb>
45.253

> <VdW>
0.384

> <VdW6>
-5.596

> <VdW12>
5.980

> <Bond>
0.198

> <Angle>
1.369

> <Pdih>
2.230

> <Idih>
0.000

> <Tether>
0.000

$$$$
VeraChem MOL file


 20 19  0  0  0  0  0  0  0  0999 V2000     
   18.9099   18.3559   21.1579 N   0  3  0  0  0  0  0  0  0  0  0  0
   18.2492   17.5717   21.1435 H   0  0  0  0  0  0  0  0  0  0  0  0
   18.5657   19.0333   21.8453 H   0  0  0  0  0  0  0  0  0  0  0  0
   18.8610   18.8037   20.2374 H   0  0  0  0  0  0  0  0  0  0  0  0
   20.3182   17.9004   21.4877 C   0  0  0  0  0  0  0  0  0  0  0  0
   20.6126   17.1866   20.7135 H   0  0  0  0  0  0  0  0  0  0  0  0
   20.3013   17.3739   22.4457 H   0  0  0  0  0  0  0  0  0  0  0  0
   21.3515   19.0443   21.5367 C   0  0  0  0  0  0  0  0  0  0  0  0
   22.3430   18.6059   21.3621 H   0  0  0  0  0  0  0  0  0  0  0  0
   21.1800   19.7362   20.7015 H   0  0  0  0  0  0  0  0  0  0  0  0
   21.4092   19.8263   22.8765 C   0  0  0  0  0  0  0  0  0  0  0  0
   22.2171   20.5661   22.7901 H   0  0  0  0  0  0  0  0  0  0  0  0
   21.7139   19.1534   23.6900 H   0  0  0  0  0  0  0  0  0  0  0  0
   20.1107   20.5777   23.2660 C   0  0  0  0  0  0  0  0  0  0  0  0
   20.3865   21.5174   23.7651 H   0  0  0  0  0  0  0  0  0  0  0  0
   19.5536   20.8739   22.3670 H   0  0  0  0  0  0  0  0  0  0  0  0
   19.2111   19.7744   24.2351 C   0  0  0  0  0  0  0  0  0  0  0  0
   18.9469   18.7871   23.8413 H   0  0  0  0  0  0  0  0  0  0  0  0
   19.7203   19.6195   25.1954 H   0  0  0  0  0  0  0  0  0  0  0  0
   18.2798   20.3185   24.4394 H   0  0  0  0  0  0  0  0  0  0  0  0
  1  2  1  0  0  0  0
  1  3  1  0  0  0  0
  1  4  1  0  0  0  0
  1  5  1  0  0  0  0
  5  6  1  0  0  0  0
  5  7  1  0  0  0  0
  5  8  1  0  0  0  0
  8  9  1  0  0  0  0
  8 10  1  0  0  0  0
  8 11  1  0  0  0  0
 11 12  1  0  0  0  0
 11 13  1  0  0  0  0
 11 14  1  0  0  0  0
 14 15  1  0  0  0  0
 14 16  1  0  0  0  0
 14 17  1  0  0  0  0
 17 18  1  0  0  0  0
 17 19  1  0  0  0  0
 17 20  1  0  0  0  0
M  END
> <VConfSearch Rank>
303

> <Conf_Id>
77

> <Delta U+W>
5.366

> <U+W>
-6.412

> <U>
51.542

> <W>
-57.954

> <W(PB)>
-59.811

> <W(SA)>
1.857

> <Valence>
5.347

> <Coulomb>
45.870

> <VdW>
0.325

> <VdW6>
-6.161

> <VdW12>
6.486

> <Bond>
0.201

> <Angle>
1.484

> <Pdih>
3.662

> <Idih>
0.000

> <Tether>
0.000

$$$$
VeraChem MOL file


 20 19  0  0  0  0  0  0  0  0999 V2000     
   21.2389   19.3135   20.7984 N   0  3  0  0  0  0  0  0  0  0  0  0
   22.1105   19.8404   20.9125 H   0  0  0  0  0  0  0  0  0  0  0  0
   21.3258   18.4565   21.3530 H   0  0  0  0  0  0  0  0  0  0  0  0
   21.1851   19.0360   19.8126 H   0  0  0  0  0  0  0  0  0  0  0  0
   20.0307   20.1263   21.2219 C   0  0  0  0  0  0  0  0  0  0  0  0
   19.1278   19.5443   21.0188 H   0  0  0  0  0  0  0  0  0  0  0  0
   20.0085   21.0184   20.5901 H   0  0  0  0  0  0  0  0  0  0  0  0
   20.0538   20.5582   22.7022 C   0  0  0  0  0  0  0  0  0  0  0  0
   21.0633   20.8921   22.9764 H   0  0  0  0  0  0  0  0  0  0  0  0
   19.4100   21.4421   22.8018 H   0  0  0  0  0  0  0  0  0  0  0  0
   19.5507   19.4904   23.7105 C   0  0  0  0  0  0  0  0  0  0  0  0
   18.4948   19.2582   23.5144 H   0  0  0  0  0  0  0  0  0  0  0  0
   19.5695   19.9479   24.7095 H   0  0  0  0  0  0  0  0  0  0  0  0
   20.3813   18.1829   23.7663 C   0  0  0  0  0  0  0  0  0  0  0  0
   21.4288   18.3814   23.5023 H   0  0  0  0  0  0  0  0  0  0  0  0
   20.4015   17.8252   24.8054 H   0  0  0  0  0  0  0  0  0  0  0  0
   19.7940   17.0520   22.8888 C   0  0  0  0  0  0  0  0  0  0  0  0
   20.4420   16.1662   22.9144 H   0  0  0  0  0  0  0  0  0  0  0  0
   18.8062   16.7491   23.2600 H   0  0  0  0  0  0  0  0  0  0  0  0
   19.6728   17.3527   21.8426 H   0  0  0  0  0  0  0  0  0  0  0  0
  1  2  1  0  0  0  0
  1  3  1  0  0  0  0
  1  4  1  0  0  0  0
  1  5  1  0  0  0  0
  5  6  1  0  0  0  0
  5  7  1  0  0  0  0
  5  8  1  0  0  0  0
  8  9  1  0  0  0  0
  8 10  1  0  0  0  0
  8 11  1  0  0  0  0
 11 12  1  0  0  0  0
 11 13  1  0  0  0  0
 11 14  1  0  0  0  0
 14 15  1  0  0  0  0
 14 16  1  0  0  0  0
 14 17  1  0  0  0  0
 17 18  1  0  0  0  0
 17 19  1  0  0  0  0
 17 20  1  0  0  0  0
M  END
> <VConfSearch Rank>
304

> <Conf_Id>
67

> <Delta U+W>
5.353

> <U+W>
-6.425

> <U>
51.541

> <W>
-57.966

> <W(PB)>
-59.821

> <W(SA)>
1.855

> <Valence>
5.347

> <Coulomb>
45.870

> <VdW>
0.325

> <VdW6>
-6.161

> <VdW12>
6.486

> <Bond>
0.201

> <Angle>
1.485

> <Pdih>
3.662

> <Idih>
0.000

> <Tether>
0.000

$$$$
VeraChem MOL file


 20 19  0  0  0  0  0  0  0  0999 V2000     
   22.0959   21.1243   24.0678 N   0  3  0  0  0  0  0  0  0  0  0  0
   21.9171   20.7695   25.0125 H   0  0  0  0  0  0  0  0  0  0  0  0
   23.0827   21.4015   24.0363 H   0  0  0  0  0  0  0  0  0  0  0  0
   21.5433   21.9805   23.9581 H   0  0  0  0  0  0  0  0  0  0  0  0
   21.7655   20.0964   23.0045 C   0  0  0  0  0  0  0  0  0  0  0  0
   22.4095   19.2273   23.1635 H   0  0  0  0  0  0  0  0  0  0  0  0
   22.0074   20.5292   22.0299 H   0  0  0  0  0  0  0  0  0  0  0  0
   20.2901   19.6582   23.0245 C   0  0  0  0  0  0  0  0  0  0  0  0
   20.0472   19.2390   24.0100 H   0  0  0  0  0  0  0  0  0  0  0  0
   19.6465   20.5363   22.8804 H   0  0  0  0  0  0  0  0  0  0  0  0
   19.9956   18.6116   21.9269 C   0  0  0  0  0  0  0  0  0  0  0  0
   20.6448   17.7366   22.0710 H   0  0  0  0  0  0  0  0  0  0  0  0
   20.2445   19.0325   20.9427 H   0  0  0  0  0  0  0  0  0  0  0  0
   18.5167   18.1640   21.9375 C   0  0  0  0  0  0  0  0  0  0  0  0
   18.2640   17.7403   22.9197 H   0  0  0  0  0  0  0  0  0  0  0  0
   17.8638   19.0360   21.7915 H   0  0  0  0  0  0  0  0  0  0  0  0
   18.2272   17.1183   20.8395 C   0  0  0  0  0  0  0  0  0  0  0  0
   18.8412   16.2190   20.9787 H   0  0  0  0  0  0  0  0  0  0  0  0
   17.1730   16.8130   20.8630 H   0  0  0  0  0  0  0  0  0  0  0  0
   18.4377   17.5247   19.8416 H   0  0  0  0  0  0  0  0  0  0  0  0
  1  2  1  0  0  0  0
  1  3  1  0  0  0  0
  1  4  1  0  0  0  0
  1  5  1  0  0  0  0
  5  6  1  0  0  0  0
  5  7  1  0  0  0  0
  5  8  1  0  0  0  0
  8  9  1  0  0  0  0
  8 10  1  0  0  0  0
  8 11  1  0  0  0  0
 11 12  1  0  0  0  0
 11 13  1  0  0  0  0
 11 14  1  0  0  0  0
 14 15  1  0  0  0  0
 14 16  1  0  0  0  0
 14 17  1  0  0  0  0
 17 18  1  0  0  0  0
 17 19  1  0  0  0  0
 17 20  1  0  0  0  0
M  END
> <VConfSearch Rank>
305

> <Conf_Id>
72

> <Delta U+W>
0.000

> <U+W>
-11.778

> <U>
45.772

> <W>
-57.550

> <W(PB)>
-59.511

> <W(SA)>
1.961

> <Valence>
1.299

> <Coulomb>
44.177

> <VdW>
0.297

> <VdW6>
-3.490

> <VdW12>
3.786

> <Bond>
0.096

> <Angle>
0.381

> <Pdih>
0.822

> <Idih>
0.000

> <Tether>
0.000

$$$$
VeraChem MOL file


 20 19  0  0  0  0  0  0  0  0999 V2000     
   19.9435   20.3357   25.2503 N   0  3  0  0  0  0  0  0  0  0  0  0
   19.1953   19.6837   25.5063 H   0  0  0  0  0  0  0  0  0  0  0  0
   20.8199   19.9452   25.6107 H   0  0  0  0  0  0  0  0  0  0  0  0
   19.7705   21.2043   25.7673 H   0  0  0  0  0  0  0  0  0  0  0  0
   20.0015   20.5728   23.7547 C   0  0  0  0  0  0  0  0  0  0  0  0
   20.7968   21.2970   23.5585 H   0  0  0  0  0  0  0  0  0  0  0  0
   19.0506   21.0153   23.4458 H   0  0  0  0  0  0  0  0  0  0  0  0
   20.2608   19.2878   22.9478 C   0  0  0  0  0  0  0  0  0  0  0  0
   21.2087   18.8383   23.2723 H   0  0  0  0  0  0  0  0  0  0  0  0
   19.4670   18.5623   23.1658 H   0  0  0  0  0  0  0  0  0  0  0  0
   20.3144   19.5768   21.4290 C   0  0  0  0  0  0  0  0  0  0  0  0
   21.0615   20.3604   21.2401 H   0  0  0  0  0  0  0  0  0  0  0  0
   19.3497   19.9837   21.0954 H   0  0  0  0  0  0  0  0  0  0  0  0
   20.6756   18.3362   20.5763 C   0  0  0  0  0  0  0  0  0  0  0  0
   20.7948   18.6502   19.5298 H   0  0  0  0  0  0  0  0  0  0  0  0
   21.6514   17.9401   20.8908 H   0  0  0  0  0  0  0  0  0  0  0  0
   19.6138   17.2147   20.6418 C   0  0  0  0  0  0  0  0  0  0  0  0
   18.6225   17.5920   20.3589 H   0  0  0  0  0  0  0  0  0  0  0  0
   19.8719   16.4007   19.9521 H   0  0  0  0  0  0  0  0  0  0  0  0
   19.5437   16.7835   21.6481 H   0  0  0  0  0  0  0  0  0  0  0  0
  1  2  1  0  0  0  0
  1  3  1  0  0  0  0
  1  4  1  0  0  0  0
  1  5  1  0  0  0  0
  5  6  1  0  0  0  0
  5  7  1  0  0  0  0
  5  8  1  0  0  0  0
  8  9  1  0  0  0  0
  8 10  1  0  0  0  0
  8 11  1  0  0  0  0
 11 12  1  0  0  0  0
 11 13  1  0  0  0  0
 11 14  1  0  0  0  0
 14 15  1  0  0  0  0
 14 16  1  0  0  0  0
 14 17  1  0  0  0  0
 17 18  1  0  0  0  0
 17 19  1  0  0  0  0
 17 20  1  0  0  0  0
M  END
> <VConfSearch Rank>
306

> <Conf_Id>
42

> <Delta U+W>
0.508

> <U+W>
-11.270

> <U>
46.486

> <W>
-57.756

> <W(PB)>
-59.705

> <W(SA)>
1.949

> <Valence>
1.806

> <Coulomb>
44.248

> <VdW>
0.433

> <VdW6>
-4.089

> <VdW12>
4.522

> <Bond>
0.131

> <Angle>
0.628

> <Pdih>
1.047

> <Idih>
0.000

> <Tether>
0.000

$$$$
VeraChem MOL file


 20 19  0  0  0  0  0  0  0  0999 V2000     
   19.9902   21.3640   24.3991 N   0  3  0  0  0  0  0  0  0  0  0  0
   20.9013   21.2327   24.8496 H   0  0  0  0  0  0  0  0  0  0  0  0
   20.1245   22.0372   23.6380 H   0  0  0  0  0  0  0  0  0  0  0  0
   19.3795   21.8138   25.0892 H   0  0  0  0  0  0  0  0  0  0  0  0
   19.4100   20.0552   23.9021 C   0  0  0  0  0  0  0  0  0  0  0  0
   18.4309   20.2651   23.4630 H   0  0  0  0  0  0  0  0  0  0  0  0
   19.2655   19.4007   24.7660 H   0  0  0  0  0  0  0  0  0  0  0  0
   20.3031   19.3527   22.8638 C   0  0  0  0  0  0  0  0  0  0  0  0
   20.4558   20.0250   22.0101 H   0  0  0  0  0  0  0  0  0  0  0  0
   21.2903   19.1582   23.3037 H   0  0  0  0  0  0  0  0  0  0  0  0
   19.6742   18.0223   22.3869 C   0  0  0  0  0  0  0  0  0  0  0  0
   18.7069   18.2218   21.9051 H   0  0  0  0  0  0  0  0  0  0  0  0
   19.4587   17.3943   23.2627 H   0  0  0  0  0  0  0  0  0  0  0  0
   20.5796   17.2229   21.4186 C   0  0  0  0  0  0  0  0  0  0  0  0
   21.5396   17.0003   21.9053 H   0  0  0  0  0  0  0  0  0  0  0  0
   20.1069   16.2519   21.2143 H   0  0  0  0  0  0  0  0  0  0  0  0
   20.8329   17.9456   20.0758 C   0  0  0  0  0  0  0  0  0  0  0  0
   21.4117   18.8668   20.2161 H   0  0  0  0  0  0  0  0  0  0  0  0
   21.4014   17.3003   19.3936 H   0  0  0  0  0  0  0  0  0  0  0  0
   19.8874   18.2047   19.5819 H   0  0  0  0  0  0  0  0  0  0  0  0
  1  2  1  0  0  0  0
  1  3  1  0  0  0  0
  1  4  1  0  0  0  0
  1  5  1  0  0  0  0
  5  6  1  0  0  0  0
  5  7  1  0  0  0  0
  5  8  1  0  0  0  0
  8  9  1  0  0  0  0
  8 10  1  0  0  0  0
  8 11  1  0  0  0  0
 11 12  1  0  0  0  0
 11 13  1  0  0  0  0
 11 14  1  0  0  0  0
 14 15  1  0  0  0  0
 14 16  1  0  0  0  0
 14 17  1  0  0  0  0
 17 18  1  0  0  0  0
 17 19  1  0  0  0  0
 17 20  1  0  0  0  0
M  END
> <VConfSearch Rank>
307

> <Conf_Id>
41

> <Delta U+W>
0.515

> <U+W>
-11.263

> <U>
46.486

> <W>
-57.749

> <W(PB)>
-59.685

> <W(SA)>
1.936

> <Valence>
1.806

> <Coulomb>
44.248

> <VdW>
0.433

> <VdW6>
-4.089

> <VdW12>
4.522

> <Bond>
0.131

> <Angle>
0.628

> <Pdih>
1.047

> <Idih>
0.000

> <Tether>
0.000

$$$$
VeraChem MOL file


 20 19  0  0  0  0  0  0  0  0999 V2000     
   17.5381   19.0065   21.5505 N   0  3  0  0  0  0  0  0  0  0  0  0
   16.6210   19.4324   21.3804 H   0  0  0  0  0  0  0  0  0  0  0  0
   18.0744   19.0971   20.6827 H   0  0  0  0  0  0  0  0  0  0  0  0
   17.3778   18.0061   21.7045 H   0  0  0  0  0  0  0  0  0  0  0  0
   18.2491   19.6519   22.7244 C   0  0  0  0  0  0  0  0  0  0  0  0
   17.5996   19.5539   23.5985 H   0  0  0  0  0  0  0  0  0  0  0  0
   18.3672   20.7169   22.5067 H   0  0  0  0  0  0  0  0  0  0  0  0
   19.6244   19.0314   23.0398 C   0  0  0  0  0  0  0  0  0  0  0  0
   19.9957   19.4852   23.9670 H   0  0  0  0  0  0  0  0  0  0  0  0
   19.5049   17.9585   23.2408 H   0  0  0  0  0  0  0  0  0  0  0  0
   20.6538   19.2478   21.9020 C   0  0  0  0  0  0  0  0  0  0  0  0
   20.7852   20.3239   21.7220 H   0  0  0  0  0  0  0  0  0  0  0  0
   20.2611   18.8241   20.9683 H   0  0  0  0  0  0  0  0  0  0  0  0
   22.0309   18.5994   22.1850 C   0  0  0  0  0  0  0  0  0  0  0  0
   21.9066   17.5203   22.3522 H   0  0  0  0  0  0  0  0  0  0  0  0
   22.6584   18.7003   21.2883 H   0  0  0  0  0  0  0  0  0  0  0  0
   22.7746   19.2295   23.3849 C   0  0  0  0  0  0  0  0  0  0  0  0
   22.2471   19.0459   24.3290 H   0  0  0  0  0  0  0  0  0  0  0  0
   23.7803   18.8004   23.4814 H   0  0  0  0  0  0  0  0  0  0  0  0
   22.8841   20.3142   23.2566 H   0  0  0  0  0  0  0  0  0  0  0  0
  1  2  1  0  0  0  0
  1  3  1  0  0  0  0
  1  4  1  0  0  0  0
  1  5  1  0  0  0  0
  5  6  1  0  0  0  0
  5  7  1  0  0  0  0
  5  8  1  0  0  0  0
  8  9  1  0  0  0  0
  8 10  1  0  0  0  0
  8 11  1  0  0  0  0
 11 12  1  0  0  0  0
 11 13  1  0  0  0  0
 11 14  1  0  0  0  0
 14 15  1  0  0  0  0
 14 16  1  0  0  0  0
 14 17  1  0  0  0  0
 17 18  1  0  0  0  0
 17 19  1  0  0  0  0
 17 20  1  0  0  0  0
M  END
> <VConfSearch Rank>
308

> <Conf_Id>
33

> <Delta U+W>
0.703

> <U+W>
-11.075

> <U>
47.080

> <W>
-58.154

> <W(PB)>
-60.053

> <W(SA)>
1.899

> <Valence>
1.943

> <Coulomb>
44.572

> <VdW>
0.565

> <VdW6>
-4.575

> <VdW12>
5.139

> <Bond>
0.158

> <Angle>
0.700

> <Pdih>
1.085

> <Idih>
0.000

> <Tether>
0.000

$$$$
VeraChem MOL file


 20 19  0  0  0  0  0  0  0  0999 V2000     
   20.2706   16.6790   21.1776 N   0  3  0  0  0  0  0  0  0  0  0  0
   20.7578   15.9880   20.5973 H   0  0  0  0  0  0  0  0  0  0  0  0
   19.6460   16.1573   21.8004 H   0  0  0  0  0  0  0  0  0  0  0  0
   19.6797   17.2318   20.5497 H   0  0  0  0  0  0  0  0  0  0  0  0
   21.2422   17.5492   21.9514 C   0  0  0  0  0  0  0  0  0  0  0  0
   21.8908   18.0570   21.2324 H   0  0  0  0  0  0  0  0  0  0  0  0
   21.8637   16.8883   22.5618 H   0  0  0  0  0  0  0  0  0  0  0  0
   20.5606   18.5905   22.8607 C   0  0  0  0  0  0  0  0  0  0  0  0
   19.8967   18.0789   23.5701 H   0  0  0  0  0  0  0  0  0  0  0  0
   21.3400   19.0804   23.4575 H   0  0  0  0  0  0  0  0  0  0  0  0
   19.7665   19.6545   22.0616 C   0  0  0  0  0  0  0  0  0  0  0  0
   19.0122   19.1559   21.4387 H   0  0  0  0  0  0  0  0  0  0  0  0
   20.4416   20.1776   21.3703 H   0  0  0  0  0  0  0  0  0  0  0  0
   19.0444   20.6882   22.9600 C   0  0  0  0  0  0  0  0  0  0  0  0
   18.4183   21.3302   22.3246 H   0  0  0  0  0  0  0  0  0  0  0  0
   18.3576   20.1707   23.6443 H   0  0  0  0  0  0  0  0  0  0  0  0
   20.0105   21.5825   23.7704 C   0  0  0  0  0  0  0  0  0  0  0  0
   20.7287   22.0872   23.1112 H   0  0  0  0  0  0  0  0  0  0  0  0
   19.4527   22.3566   24.3131 H   0  0  0  0  0  0  0  0  0  0  0  0
   20.5728   21.0019   24.5120 H   0  0  0  0  0  0  0  0  0  0  0  0
  1  2  1  0  0  0  0
  1  3  1  0  0  0  0
  1  4  1  0  0  0  0
  1  5  1  0  0  0  0
  5  6  1  0  0  0  0
  5  7  1  0  0  0  0
  5  8  1  0  0  0  0
  8  9  1  0  0  0  0
  8 10  1  0  0  0  0
  8 11  1  0  0  0  0
 11 12  1  0  0  0  0
 11 13  1  0  0  0  0
 11 14  1  0  0  0  0
 14 15  1  0  0  0  0
 14 16  1  0  0  0  0
 14 17  1  0  0  0  0
 17 18  1  0  0  0  0
 17 19  1  0  0  0  0
 17 20  1  0  0  0  0
M  END
> <VConfSearch Rank>
309

> <Conf_Id>
24

> <Delta U+W>
0.847

> <U+W>
-10.931

> <U>
47.080

> <W>
-58.011

> <W(PB)>
-59.914

> <W(SA)>
1.903

> <Valence>
1.943

> <Coulomb>
44.572

> <VdW>
0.565

> <VdW6>
-4.575

> <VdW12>
5.140

> <Bond>
0.158

> <Angle>
0.700

> <Pdih>
1.085

> <Idih>
0.000

> <Tether>
0.000

$$$$
VeraChem MOL file


 20 19  0  0  0  0  0  0  0  0999 V2000     
   20.8671   21.7125   23.3454 N   0  3  0  0  0  0  0  0  0  0  0  0
   20.2855   22.3891   23.8508 H   0  0  0  0  0  0  0  0  0  0  0  0
   21.5227   21.3168   24.0264 H   0  0  0  0  0  0  0  0  0  0  0  0
   21.4216   22.2453   22.6679 H   0  0  0  0  0  0  0  0  0  0  0  0
   20.0311   20.6411   22.6750 C   0  0  0  0  0  0  0  0  0  0  0  0
   19.3382   21.1337   21.9875 H   0  0  0  0  0  0  0  0  0  0  0  0
   19.4470   20.1372   23.4496 H   0  0  0  0  0  0  0  0  0  0  0  0
   20.8754   19.6070   21.9067 C   0  0  0  0  0  0  0  0  0  0  0  0
   21.4887   20.1280   21.1596 H   0  0  0  0  0  0  0  0  0  0  0  0
   21.5776   19.1183   22.5941 H   0  0  0  0  0  0  0  0  0  0  0  0
   20.0102   18.5420   21.1875 C   0  0  0  0  0  0  0  0  0  0  0  0
   20.6723   17.8473   20.6524 H   0  0  0  0  0  0  0  0  0  0  0  0
   19.4045   19.0367   20.4155 H   0  0  0  0  0  0  0  0  0  0  0  0
   19.0696   17.7320   22.1162 C   0  0  0  0  0  0  0  0  0  0  0  0
   18.3294   18.3976   22.5808 H   0  0  0  0  0  0  0  0  0  0  0  0
   18.4948   17.0249   21.5019 H   0  0  0  0  0  0  0  0  0  0  0  0
   19.8197   16.9427   23.2132 C   0  0  0  0  0  0  0  0  0  0  0  0
   19.1207   16.3158   23.7818 H   0  0  0  0  0  0  0  0  0  0  0  0
   20.5809   16.2840   22.7752 H   0  0  0  0  0  0  0  0  0  0  0  0
   20.3144   17.6143   23.9257 H   0  0  0  0  0  0  0  0  0  0  0  0
  1  2  1  0  0  0  0
  1  3  1  0  0  0  0
  1  4  1  0  0  0  0
  1  5  1  0  0  0  0
  5  6  1  0  0  0  0
  5  7  1  0  0  0  0
  5  8  1  0  0  0  0
  8  9  1  0  0  0  0
  8 10  1  0  0  0  0
  8 11  1  0  0  0  0
 11 12  1  0  0  0  0
 11 13  1  0  0  0  0
 11 14  1  0  0  0  0
 14 15  1  0  0  0  0
 14 16  1  0  0  0  0
 14 17  1  0  0  0  0
 17 18  1  0  0  0  0
 17 19  1  0  0  0  0
 17 20  1  0  0  0  0
M  END
> <VConfSearch Rank>
310

> <Conf_Id>
64

> <Delta U+W>
0.707

> <U+W>
-11.070

> <U>
47.077

> <W>
-58.148

> <W(PB)>
-60.054

> <W(SA)>
1.906

> <Valence>
2.039

> <Coulomb>
44.655

> <VdW>
0.383

> <VdW6>
-4.912

> <VdW12>
5.295

> <Bond>
0.159

> <Angle>
0.856

> <Pdih>
1.024

> <Idih>
0.000

> <Tether>
0.000

$$$$
VeraChem MOL file


 20 19  0  0  0  0  0  0  0  0999 V2000     
   20.3914   20.7092   20.3016 N   0  3  0  0  0  0  0  0  0  0  0  0
   20.2306   20.2405   19.4045 H   0  0  0  0  0  0  0  0  0  0  0  0
   19.5201   21.1870   20.5522 H   0  0  0  0  0  0  0  0  0  0  0  0
   21.0930   21.4382   20.1344 H   0  0  0  0  0  0  0  0  0  0  0  0
   20.8342   19.7374   21.3767 C   0  0  0  0  0  0  0  0  0  0  0  0
   21.0154   20.3082   22.2913 H   0  0  0  0  0  0  0  0  0  0  0  0
   21.7790   19.2886   21.0584 H   0  0  0  0  0  0  0  0  0  0  0  0
   19.8012   18.6287   21.6530 C   0  0  0  0  0  0  0  0  0  0  0  0
   18.8497   19.0786   21.9638 H   0  0  0  0  0  0  0  0  0  0  0  0
   19.5957   18.0888   20.7192 H   0  0  0  0  0  0  0  0  0  0  0  0
   20.2816   17.6144   22.7209 C   0  0  0  0  0  0  0  0  0  0  0  0
   21.1644   17.0841   22.3374 H   0  0  0  0  0  0  0  0  0  0  0  0
   19.5059   16.8486   22.8593 H   0  0  0  0  0  0  0  0  0  0  0  0
   20.6320   18.2354   24.0974 C   0  0  0  0  0  0  0  0  0  0  0  0
   20.9761   17.4338   24.7659 H   0  0  0  0  0  0  0  0  0  0  0  0
   21.4790   18.9277   23.9970 H   0  0  0  0  0  0  0  0  0  0  0  0
   19.4424   18.9629   24.7641 C   0  0  0  0  0  0  0  0  0  0  0  0
   18.5745   18.2973   24.8573 H   0  0  0  0  0  0  0  0  0  0  0  0
   19.7149   19.3019   25.7719 H   0  0  0  0  0  0  0  0  0  0  0  0
   19.1380   19.8470   24.1902 H   0  0  0  0  0  0  0  0  0  0  0  0
  1  2  1  0  0  0  0
  1  3  1  0  0  0  0
  1  4  1  0  0  0  0
  1  5  1  0  0  0  0
  5  6  1  0  0  0  0
  5  7  1  0  0  0  0
  5  8  1  0  0  0  0
  8  9  1  0  0  0  0
  8 10  1  0  0  0  0
  8 11  1  0  0  0  0
 11 12  1  0  0  0  0
 11 13  1  0  0  0  0
 11 14  1  0  0  0  0
 14 15  1  0  0  0  0
 14 16  1  0  0  0  0
 14 17  1  0  0  0  0
 17 18  1  0  0  0  0
 17 19  1  0  0  0  0
 17 20  1  0  0  0  0
M  END
> <VConfSearch Rank>
311

> <Conf_Id>
22

> <Delta U+W>
0.731

> <U+W>
-11.047

> <U>
47.078

> <W>
-58.125

> <W(PB)>
-60.031

> <W(SA)>
1.906

> <Valence>
2.039

> <Coulomb>
44.655

> <VdW>
0.383

> <VdW6>
-4.913

> <VdW12>
5.296

> <Bond>
0.159

> <Angle>
0.856

> <Pdih>
1.024

> <Idih>
0.000

> <Tether>
0.000

$$$$
VeraChem MOL file


 20 19  0  0  0  0  0  0  0  0999 V2000     
   21.4505   16.9483   23.4085 N   0  3  0  0  0  0  0  0  0  0  0  0
   22.2432   16.8788   22.7626 H   0  0  0  0  0  0  0  0  0  0  0  0
   21.8385   17.0619   24.3502 H   0  0  0  0  0  0  0  0  0  0  0  0
   20.9727   16.0411   23.3916 H   0  0  0  0  0  0  0  0  0  0  0  0
   20.5171   18.0838   23.0396 C   0  0  0  0  0  0  0  0  0  0  0  0
   19.6853   18.0822   23.7492 H   0  0  0  0  0  0  0  0  0  0  0  0
   20.1233   17.8783   22.0416 H   0  0  0  0  0  0  0  0  0  0  0  0
   21.2062   19.4599   23.0503 C   0  0  0  0  0  0  0  0  0  0  0  0
   21.6996   19.6001   24.0213 H   0  0  0  0  0  0  0  0  0  0  0  0
   22.0015   19.4764   22.2933 H   0  0  0  0  0  0  0  0  0  0  0  0
   20.2396   20.6484   22.8153 C   0  0  0  0  0  0  0  0  0  0  0  0
   20.8199   21.5739   22.9348 H   0  0  0  0  0  0  0  0  0  0  0  0
   19.4735   20.6750   23.6025 H   0  0  0  0  0  0  0  0  0  0  0  0
   19.5711   20.6797   21.4163 C   0  0  0  0  0  0  0  0  0  0  0  0
   19.3511   21.7263   21.1628 H   0  0  0  0  0  0  0  0  0  0  0  0
   20.2742   20.3253   20.6496 H   0  0  0  0  0  0  0  0  0  0  0  0
   18.2458   19.8859   21.3368 C   0  0  0  0  0  0  0  0  0  0  0  0
   18.3946   18.8118   21.4883 H   0  0  0  0  0  0  0  0  0  0  0  0
   17.5290   20.2400   22.0889 H   0  0  0  0  0  0  0  0  0  0  0  0
   17.7821   20.0155   20.3503 H   0  0  0  0  0  0  0  0  0  0  0  0
  1  2  1  0  0  0  0
  1  3  1  0  0  0  0
  1  4  1  0  0  0  0
  1  5  1  0  0  0  0
  5  6  1  0  0  0  0
  5  7  1  0  0  0  0
  5  8  1  0  0  0  0
  8  9  1  0  0  0  0
  8 10  1  0  0  0  0
  8 11  1  0  0  0  0
 11 12  1  0  0  0  0
 11 13  1  0  0  0  0
 11 14  1  0  0  0  0
 14 15  1  0  0  0  0
 14 16  1  0  0  0  0
 14 17  1  0  0  0  0
 17 18  1  0  0  0  0
 17 19  1  0  0  0  0
 17 20  1  0  0  0  0
M  END
> <VConfSearch Rank>
312

> <Conf_Id>
61

> <Delta U+W>
2.669

> <U+W>
-9.108

> <U>
48.916

> <W>
-58.025

> <W(PB)>
-59.935

> <W(SA)>
1.911

> <Valence>
3.785

> <Coulomb>
44.716

> <VdW>
0.415

> <VdW6>
-4.836

> <VdW12>
5.251

> <Bond>
0.175

> <Angle>
1.195

> <Pdih>
2.415

> <Idih>
0.000

> <Tether>
0.000

$$$$
VeraChem MOL file


 20 19  0  0  0  0  0  0  0  0999 V2000     
   21.6659   20.6943   21.9629 N   0  3  0  0  0  0  0  0  0  0  0  0
   22.4879   21.1972   22.3135 H   0  0  0  0  0  0  0  0  0  0  0  0
   21.3863   21.1546   21.0910 H   0  0  0  0  0  0  0  0  0  0  0  0
   20.9118   20.8431   22.6383 H   0  0  0  0  0  0  0  0  0  0  0  0
   21.9564   19.2205   21.7528 C   0  0  0  0  0  0  0  0  0  0  0  0
   22.3043   18.7954   22.6981 H   0  0  0  0  0  0  0  0  0  0  0  0
   22.7763   19.1576   21.0322 H   0  0  0  0  0  0  0  0  0  0  0  0
   20.7588   18.4053   21.2209 C   0  0  0  0  0  0  0  0  0  0  0  0
   20.2387   18.9692   20.4352 H   0  0  0  0  0  0  0  0  0  0  0  0
   21.1579   17.5067   20.7320 H   0  0  0  0  0  0  0  0  0  0  0  0
   19.7561   17.9466   22.3109 C   0  0  0  0  0  0  0  0  0  0  0  0
   20.2815   17.3353   23.0577 H   0  0  0  0  0  0  0  0  0  0  0  0
   19.0178   17.2838   21.8386 H   0  0  0  0  0  0  0  0  0  0  0  0
   19.0093   19.0997   23.0215 C   0  0  0  0  0  0  0  0  0  0  0  0
   19.7123   19.6881   23.6243 H   0  0  0  0  0  0  0  0  0  0  0  0
   18.5707   19.7770   22.2752 H   0  0  0  0  0  0  0  0  0  0  0  0
   17.8933   18.5691   23.9467 C   0  0  0  0  0  0  0  0  0  0  0  0
   17.3799   19.3986   24.4503 H   0  0  0  0  0  0  0  0  0  0  0  0
   17.1424   18.0053   23.3779 H   0  0  0  0  0  0  0  0  0  0  0  0
   18.3035   17.9075   24.7208 H   0  0  0  0  0  0  0  0  0  0  0  0
  1  2  1  0  0  0  0
  1  3  1  0  0  0  0
  1  4  1  0  0  0  0
  1  5  1  0  0  0  0
  5  6  1  0  0  0  0
  5  7  1  0  0  0  0
  5  8  1  0  0  0  0
  8  9  1  0  0  0  0
  8 10  1  0  0  0  0
  8 11  1  0  0  0  0
 11 12  1  0  0  0  0
 11 13  1  0  0  0  0
 11 14  1  0  0  0  0
 14 15  1  0  0  0  0
 14 16  1  0  0  0  0
 14 17  1  0  0  0  0
 17 18  1  0  0  0  0
 17 19  1  0  0  0  0
 17 20  1  0  0  0  0
M  END
> <VConfSearch Rank>
313

> <Conf_Id>
69

> <Delta U+W>
2.811

> <U+W>
-8.967

> <U>
49.216

> <W>
-58.183

> <W(PB)>
-60.064

> <W(SA)>
1.881

> <Valence>
2.929

> <Coulomb>
46.006

> <VdW>
0.281

> <VdW6>
-4.909

> <VdW12>
5.190

> <Bond>
0.156

> <Angle>
0.974

> <Pdih>
1.799

> <Idih>
0.000

> <Tether>
0.000

$$$$
VeraChem MOL file


 20 19  0  0  0  0  0  0  0  0999 V2000     
   19.0956   21.0138   23.3688 N   0  3  0  0  0  0  0  0  0  0  0  0
   19.6344   21.0830   22.5017 H   0  0  0  0  0  0  0  0  0  0  0  0
   18.1040   21.0148   23.1097 H   0  0  0  0  0  0  0  0  0  0  0  0
   19.2648   21.8756   23.8982 H   0  0  0  0  0  0  0  0  0  0  0  0
   19.4663   19.7804   24.1701 C   0  0  0  0  0  0  0  0  0  0  0  0
   18.8560   19.7953   25.0772 H   0  0  0  0  0  0  0  0  0  0  0  0
   20.5154   19.8602   24.4675 H   0  0  0  0  0  0  0  0  0  0  0  0
   19.2313   18.4466   23.4303 C   0  0  0  0  0  0  0  0  0  0  0  0
   19.1323   17.6580   24.1880 H   0  0  0  0  0  0  0  0  0  0  0  0
   18.2709   18.4750   22.8987 H   0  0  0  0  0  0  0  0  0  0  0  0
   20.3721   18.0355   22.4642 C   0  0  0  0  0  0  0  0  0  0  0  0
   20.1537   17.0266   22.0875 H   0  0  0  0  0  0  0  0  0  0  0  0
   21.3144   17.9550   23.0236 H   0  0  0  0  0  0  0  0  0  0  0  0
   20.5667   18.9866   21.2600 C   0  0  0  0  0  0  0  0  0  0  0  0
   19.6036   19.1569   20.7587 H   0  0  0  0  0  0  0  0  0  0  0  0
   20.9325   19.9614   21.6060 H   0  0  0  0  0  0  0  0  0  0  0  0
   21.5774   18.4156   20.2424 C   0  0  0  0  0  0  0  0  0  0  0  0
   21.2321   17.4552   19.8379 H   0  0  0  0  0  0  0  0  0  0  0  0
   21.7114   19.1062   19.3997 H   0  0  0  0  0  0  0  0  0  0  0  0
   22.5592   18.2574   20.7074 H   0  0  0  0  0  0  0  0  0  0  0  0
  1  2  1  0  0  0  0
  1  3  1  0  0  0  0
  1  4  1  0  0  0  0
  1  5  1  0  0  0  0
  5  6  1  0  0  0  0
  5  7  1  0  0  0  0
  5  8  1  0  0  0  0
  8  9  1  0  0  0  0
  8 10  1  0  0  0  0
  8 11  1  0  0  0  0
 11 12  1  0  0  0  0
 11 13  1  0  0  0  0
 11 14  1  0  0  0  0
 14 15  1  0  0  0  0
 14 16  1  0  0  0  0
 14 17  1  0  0  0  0
 17 18  1  0  0  0  0
 17 19  1  0  0  0  0
 17 20  1  0  0  0  0
M  END
> <VConfSearch Rank>
314

> <Conf_Id>
26

> <Delta U+W>
2.809

> <U+W>
-8.969

> <U>
49.216

> <W>
-58.185

> <W(PB)>
-60.088

> <W(SA)>
1.903

> <Valence>
2.929

> <Coulomb>
46.006

> <VdW>
0.281

> <VdW6>
-4.909

> <VdW12>
5.190

> <Bond>
0.156

> <Angle>
0.974

> <Pdih>
1.799

> <Idih>
0.000

> <Tether>
0.000

$$$$
VeraChem MOL file


 20 19  0  0  0  0  0  0  0  0999 V2000     
   20.4135   20.8302   24.2042 N   0  3  0  0  0  0  0  0  0  0  0  0
   20.5056   21.3169   23.3078 H   0  0  0  0  0  0  0  0  0  0  0  0
   19.5650   21.1854   24.6558 H   0  0  0  0  0  0  0  0  0  0  0  0
   21.2056   21.1209   24.7869 H   0  0  0  0  0  0  0  0  0  0  0  0
   20.3686   19.3254   24.0237 C   0  0  0  0  0  0  0  0  0  0  0  0
   20.3017   18.8728   25.0168 H   0  0  0  0  0  0  0  0  0  0  0  0
   21.3114   19.0092   23.5699 H   0  0  0  0  0  0  0  0  0  0  0  0
   19.1871   18.8401   23.1596 C   0  0  0  0  0  0  0  0  0  0  0  0
   19.1868   17.7427   23.1450 H   0  0  0  0  0  0  0  0  0  0  0  0
   18.2451   19.1333   23.6416 H   0  0  0  0  0  0  0  0  0  0  0  0
   19.2059   19.3801   21.7053 C   0  0  0  0  0  0  0  0  0  0  0  0
   19.0417   20.4659   21.7186 H   0  0  0  0  0  0  0  0  0  0  0  0
   18.3508   18.9573   21.1601 H   0  0  0  0  0  0  0  0  0  0  0  0
   20.5059   19.0787   20.9165 C   0  0  0  0  0  0  0  0  0  0  0  0
   20.4191   19.5224   19.9147 H   0  0  0  0  0  0  0  0  0  0  0  0
   21.3631   19.5740   21.3922 H   0  0  0  0  0  0  0  0  0  0  0  0
   20.7965   17.5679   20.7680 C   0  0  0  0  0  0  0  0  0  0  0  0
   19.9469   17.0457   20.3092 H   0  0  0  0  0  0  0  0  0  0  0  0
   21.6743   17.4062   20.1291 H   0  0  0  0  0  0  0  0  0  0  0  0
   21.0043   17.1004   21.7385 H   0  0  0  0  0  0  0  0  0  0  0  0
  1  2  1  0  0  0  0
  1  3  1  0  0  0  0
  1  4  1  0  0  0  0
  1  5  1  0  0  0  0
  5  6  1  0  0  0  0
  5  7  1  0  0  0  0
  5  8  1  0  0  0  0
  8  9  1  0  0  0  0
  8 10  1  0  0  0  0
  8 11  1  0  0  0  0
 11 12  1  0  0  0  0
 11 13  1  0  0  0  0
 11 14  1  0  0  0  0
 14 15  1  0  0  0  0
 14 16  1  0  0  0  0
 14 17  1  0  0  0  0
 17 18  1  0  0  0  0
 17 19  1  0  0  0  0
 17 20  1  0  0  0  0
M  END
> <VConfSearch Rank>
315

> <Conf_Id>
2

> <Delta U+W>
0.994

> <U+W>
-10.784

> <U>
47.562

> <W>
-58.346

> <W(PB)>
-60.221

> <W(SA)>
1.875

> <Valence>
2.149

> <Coulomb>
45.034

> <VdW>
0.378

> <VdW6>
-5.599

> <VdW12>
5.977

> <Bond>
0.185

> <Angle>
0.935

> <Pdih>
1.028

> <Idih>
0.000

> <Tether>
0.000

$$$$
VeraChem MOL file


 20 19  0  0  0  0  0  0  0  0999 V2000     
   20.3043   20.3113   20.3830 N   0  3  0  0  0  0  0  0  0  0  0  0
   19.6144   21.0540   20.2329 H   0  0  0  0  0  0  0  0  0  0  0  0
   21.0265   20.6899   21.0027 H   0  0  0  0  0  0  0  0  0  0  0  0
   20.7498   20.1303   19.4775 H   0  0  0  0  0  0  0  0  0  0  0  0
   19.6698   19.0605   20.9593 C   0  0  0  0  0  0  0  0  0  0  0  0
   20.4491   18.3011   21.0633 H   0  0  0  0  0  0  0  0  0  0  0  0
   18.9355   18.6960   20.2358 H   0  0  0  0  0  0  0  0  0  0  0  0
   18.9793   19.2864   22.3196 C   0  0  0  0  0  0  0  0  0  0  0  0
   18.1766   20.0254   22.1967 H   0  0  0  0  0  0  0  0  0  0  0  0
   18.4847   18.3553   22.6242 H   0  0  0  0  0  0  0  0  0  0  0  0
   19.9394   19.7578   23.4435 C   0  0  0  0  0  0  0  0  0  0  0  0
   19.3684   19.8591   24.3768 H   0  0  0  0  0  0  0  0  0  0  0  0
   20.3060   20.7662   23.2092 H   0  0  0  0  0  0  0  0  0  0  0  0
   21.1540   18.8276   23.6938 C   0  0  0  0  0  0  0  0  0  0  0  0
   21.7931   18.7881   22.8013 H   0  0  0  0  0  0  0  0  0  0  0  0
   21.7733   19.2658   24.4889 H   0  0  0  0  0  0  0  0  0  0  0  0
   20.7528   17.3938   24.1086 C   0  0  0  0  0  0  0  0  0  0  0  0
   20.2282   16.8720   23.2986 H   0  0  0  0  0  0  0  0  0  0  0  0
   21.6432   16.8028   24.3596 H   0  0  0  0  0  0  0  0  0  0  0  0
   20.0989   17.4062   24.9902 H   0  0  0  0  0  0  0  0  0  0  0  0
  1  2  1  0  0  0  0
  1  3  1  0  0  0  0
  1  4  1  0  0  0  0
  1  5  1  0  0  0  0
  5  6  1  0  0  0  0
  5  7  1  0  0  0  0
  5  8  1  0  0  0  0
  8  9  1  0  0  0  0
  8 10  1  0  0  0  0
  8 11  1  0  0  0  0
 11 12  1  0  0  0  0
 11 13  1  0  0  0  0
 11 14  1  0  0  0  0
 14 15  1  0  0  0  0
 14 16  1  0  0  0  0
 14 17  1  0  0  0  0
 17 18  1  0  0  0  0
 17 19  1  0  0  0  0
 17 20  1  0  0  0  0
M  END
> <VConfSearch Rank>
316

> <Conf_Id>
1

> <Delta U+W>
1.032

> <U+W>
-10.746

> <U>
47.562

> <W>
-58.308

> <W(PB)>
-60.184

> <W(SA)>
1.877

> <Valence>
2.149

> <Coulomb>
45.035

> <VdW>
0.378

> <VdW6>
-5.599

> <VdW12>
5.978

> <Bond>
0.185

> <Angle>
0.935

> <Pdih>
1.028

> <Idih>
0.000

> <Tether>
0.000

$$$$
VeraChem MOL file


 20 19  0  0  0  0  0  0  0  0999 V2000     
   19.5435   17.3587   23.8574 N   0  3  0  0  0  0  0  0  0  0  0  0
   19.0823   16.5503   23.4285 H   0  0  0  0  0  0  0  0  0  0  0  0
   20.5490   17.2565   23.6923 H   0  0  0  0  0  0  0  0  0  0  0  0
   19.3972   17.2829   24.8694 H   0  0  0  0  0  0  0  0  0  0  0  0
   19.0124   18.6687   23.3082 C   0  0  0  0  0  0  0  0  0  0  0  0
   19.5215   19.4820   23.8276 H   0  0  0  0  0  0  0  0  0  0  0  0
   17.9495   18.7230   23.5591 H   0  0  0  0  0  0  0  0  0  0  0  0
   19.1798   18.8182   21.7810 C   0  0  0  0  0  0  0  0  0  0  0  0
   18.6634   17.9780   21.2981 H   0  0  0  0  0  0  0  0  0  0  0  0
   18.6583   19.7242   21.4451 H   0  0  0  0  0  0  0  0  0  0  0  0
   20.6519   18.8523   21.2890 C   0  0  0  0  0  0  0  0  0  0  0  0
   20.6617   18.5408   20.2353 H   0  0  0  0  0  0  0  0  0  0  0  0
   21.2552   18.1047   21.8200 H   0  0  0  0  0  0  0  0  0  0  0  0
   21.3387   20.2401   21.3678 C   0  0  0  0  0  0  0  0  0  0  0  0
   22.3343   20.1581   20.9097 H   0  0  0  0  0  0  0  0  0  0  0  0
   20.7829   20.9640   20.7555 H   0  0  0  0  0  0  0  0  0  0  0  0
   21.5021   20.7967   22.7994 C   0  0  0  0  0  0  0  0  0  0  0  0
   21.9524   20.0519   23.4682 H   0  0  0  0  0  0  0  0  0  0  0  0
   22.1544   21.6795   22.7936 H   0  0  0  0  0  0  0  0  0  0  0  0
   20.5387   21.1103   23.2185 H   0  0  0  0  0  0  0  0  0  0  0  0
  1  2  1  0  0  0  0
  1  3  1  0  0  0  0
  1  4  1  0  0  0  0
  1  5  1  0  0  0  0
  5  6  1  0  0  0  0
  5  7  1  0  0  0  0
  5  8  1  0  0  0  0
  8  9  1  0  0  0  0
  8 10  1  0  0  0  0
  8 11  1  0  0  0  0
 11 12  1  0  0  0  0
 11 13  1  0  0  0  0
 11 14  1  0  0  0  0
 14 15  1  0  0  0  0
 14 16  1  0  0  0  0
 14 17  1  0  0  0  0
 17 18  1  0  0  0  0
 17 19  1  0  0  0  0
 17 20  1  0  0  0  0
M  END
> <VConfSearch Rank>
317

> <Conf_Id>
80

> <Delta U+W>
2.920

> <U+W>
-8.857

> <U>
49.434

> <W>
-58.292

> <W(PB)>
-60.170

> <W(SA)>
1.879

> <Valence>
3.798

> <Coulomb>
45.253

> <VdW>
0.384

> <VdW6>
-5.595

> <VdW12>
5.979

> <Bond>
0.198

> <Angle>
1.368

> <Pdih>
2.231

> <Idih>
0.000

> <Tether>
0.000

$$$$
VeraChem MOL file


 20 19  0  0  0  0  0  0  0  0999 V2000     
   19.5089   21.2579   23.3486 N   0  3  0  0  0  0  0  0  0  0  0  0
   19.7159   22.1098   22.8181 H   0  0  0  0  0  0  0  0  0  0  0  0
   18.8311   21.5156   24.0735 H   0  0  0  0  0  0  0  0  0  0  0  0
   20.3706   20.9835   23.8290 H   0  0  0  0  0  0  0  0  0  0  0  0
   18.9843   20.1502   22.4555 C   0  0  0  0  0  0  0  0  0  0  0  0
   18.0472   20.5004   22.0141 H   0  0  0  0  0  0  0  0  0  0  0  0
   18.7568   19.2893   23.0861 H   0  0  0  0  0  0  0  0  0  0  0  0
   19.9559   19.7471   21.3258 C   0  0  0  0  0  0  0  0  0  0  0  0
   19.4557   19.0400   20.6510 H   0  0  0  0  0  0  0  0  0  0  0  0
   20.1660   20.6404   20.7227 H   0  0  0  0  0  0  0  0  0  0  0  0
   21.3006   19.1413   21.8107 C   0  0  0  0  0  0  0  0  0  0  0  0
   21.6887   19.6996   22.6723 H   0  0  0  0  0  0  0  0  0  0  0  0
   22.0415   19.2846   21.0120 H   0  0  0  0  0  0  0  0  0  0  0  0
   21.2587   17.6261   22.1366 C   0  0  0  0  0  0  0  0  0  0  0  0
   20.9615   17.0624   21.2412 H   0  0  0  0  0  0  0  0  0  0  0  0
   22.2797   17.2970   22.3760 H   0  0  0  0  0  0  0  0  0  0  0  0
   20.3327   17.2465   23.3133 C   0  0  0  0  0  0  0  0  0  0  0  0
   19.2761   17.3439   23.0376 H   0  0  0  0  0  0  0  0  0  0  0  0
   20.4952   16.2009   23.6050 H   0  0  0  0  0  0  0  0  0  0  0  0
   20.5275   17.8737   24.1927 H   0  0  0  0  0  0  0  0  0  0  0  0
  1  2  1  0  0  0  0
  1  3  1  0  0  0  0
  1  4  1  0  0  0  0
  1  5  1  0  0  0  0
  5  6  1  0  0  0  0
  5  7  1  0  0  0  0
  5  8  1  0  0  0  0
  8  9  1  0  0  0  0
  8 10  1  0  0  0  0
  8 11  1  0  0  0  0
 11 12  1  0  0  0  0
 11 13  1  0  0  0  0
 11 14  1  0  0  0  0
 14 15  1  0  0  0  0
 14 16  1  0  0  0  0
 14 17  1  0  0  0  0
 17 18  1  0  0  0  0
 17 19  1  0  0  0  0
 17 20  1  0  0  0  0
M  END
> <VConfSearch Rank>
318

> <Conf_Id>
65

> <Delta U+W>
2.949

> <U+W>
-8.829

> <U>
49.435

> <W>
-58.263

> <W(PB)>
-60.125

> <W(SA)>
1.862

> <Valence>
3.797

> <Coulomb>
45.253

> <VdW>
0.384

> <VdW6>
-5.596

> <VdW12>
5.980

> <Bond>
0.198

> <Angle>
1.369

> <Pdih>
2.230

> <Idih>
0.000

> <Tether>
0.000

$$$$
VeraChem MOL file


 20 19  0  0  0  0  0  0  0  0999 V2000     
   21.3980   20.6872   22.1080 N   0  3  0  0  0  0  0  0  0  0  0  0
   21.5209   21.6710   22.3702 H   0  0  0  0  0  0  0  0  0  0  0  0
   21.4230   20.1353   22.9708 H   0  0  0  0  0  0  0  0  0  0  0  0
   22.2175   20.4222   21.5525 H   0  0  0  0  0  0  0  0  0  0  0  0
   20.1060   20.4641   21.3461 C   0  0  0  0  0  0  0  0  0  0  0  0
   20.1562   21.0808   20.4446 H   0  0  0  0  0  0  0  0  0  0  0  0
   19.2726   20.8227   21.9562 H   0  0  0  0  0  0  0  0  0  0  0  0
   19.8639   18.9964   20.9392 C   0  0  0  0  0  0  0  0  0  0  0  0
   19.1794   18.9969   20.0805 H   0  0  0  0  0  0  0  0  0  0  0  0
   20.7996   18.5526   20.5743 H   0  0  0  0  0  0  0  0  0  0  0  0
   19.2397   18.0989   22.0414 C   0  0  0  0  0  0  0  0  0  0  0  0
   19.0731   17.1061   21.6008 H   0  0  0  0  0  0  0  0  0  0  0  0
   18.2412   18.4726   22.3076 H   0  0  0  0  0  0  0  0  0  0  0  0
   20.0982   17.9185   23.3192 C   0  0  0  0  0  0  0  0  0  0  0  0
   19.9574   16.8947   23.6937 H   0  0  0  0  0  0  0  0  0  0  0  0
   21.1668   18.0002   23.0791 H   0  0  0  0  0  0  0  0  0  0  0  0
   19.7098   18.8946   24.4551 C   0  0  0  0  0  0  0  0  0  0  0  0
   19.7545   19.9429   24.1409 H   0  0  0  0  0  0  0  0  0  0  0  0
   18.6860   18.6982   24.7994 H   0  0  0  0  0  0  0  0  0  0  0  0
   20.3776   18.7701   25.3175 H   0  0  0  0  0  0  0  0  0  0  0  0
  1  2  1  0  0  0  0
  1  3  1  0  0  0  0
  1  4  1  0  0  0  0
  1  5  1  0  0  0  0
  5  6  1  0  0  0  0
  5  7  1  0  0  0  0
  5  8  1  0  0  0  0
  8  9  1  0  0  0  0
  8 10  1  0  0  0  0
  8 11  1  0  0  0  0
 11 12  1  0  0  0  0
 11 13  1  0  0  0  0
 11 14  1  0  0  0  0
 14 15  1  0  0  0  0
 14 16  1  0  0  0  0
 14 17  1  0  0  0  0
 17 18  1  0  0  0  0
 17 19  1  0  0  0  0
 17 20  1  0  0  0  0
M  END
> <VConfSearch Rank>
319

> <Conf_Id>
77

> <Delta U+W>
5.366

> <U+W>
-6.412

> <U>
51.542

> <W>
-57.954

> <W(PB)>
-59.811

> <W(SA)>
1.857

> <Valence>
5.347

> <Coulomb>
45.870

> <VdW>
0.325

> <VdW6>
-6.161

> <VdW12>
6.486

> <Bond>
0.201

> <Angle>
1.484

> <Pdih>
3.662

> <Idih>
0.000

> <Tether>
0.000

$$$$
VeraChem MOL file


 20 19  0  0  0  0  0  0  0  0999 V2000     
   19.6296   17.5555   23.6313 N   0  3  0  0  0  0  0  0  0  0  0  0
   19.7726   17.7153   24.6336 H   0  0  0  0  0  0  0  0  0  0  0  0
   18.9756   18.2707   23.2989 H   0  0  0  0  0  0  0  0  0  0  0  0
   19.1632   16.6470   23.5378 H   0  0  0  0  0  0  0  0  0  0  0  0
   20.9359   17.6004   22.8625 C   0  0  0  0  0  0  0  0  0  0  0  0
   20.7349   17.3598   21.8152 H   0  0  0  0  0  0  0  0  0  0  0  0
   21.5759   16.8152   23.2741 H   0  0  0  0  0  0  0  0  0  0  0  0
   21.6728   18.9518   22.9576 C   0  0  0  0  0  0  0  0  0  0  0  0
   21.6298   19.3270   23.9887 H   0  0  0  0  0  0  0  0  0  0  0  0
   22.7355   18.7674   22.7515 H   0  0  0  0  0  0  0  0  0  0  0  0
   21.1817   20.0438   21.9696 C   0  0  0  0  0  0  0  0  0  0  0  0
   21.3523   19.7165   20.9346 H   0  0  0  0  0  0  0  0  0  0  0  0
   21.8241   20.9245   22.1081 H   0  0  0  0  0  0  0  0  0  0  0  0
   19.7087   20.4916   22.1498 C   0  0  0  0  0  0  0  0  0  0  0  0
   19.3982   20.3794   23.1973 H   0  0  0  0  0  0  0  0  0  0  0  0
   19.6415   21.5677   21.9357 H   0  0  0  0  0  0  0  0  0  0  0  0
   18.7305   19.7592   21.2009 C   0  0  0  0  0  0  0  0  0  0  0  0
   17.6954   20.0656   21.4006 H   0  0  0  0  0  0  0  0  0  0  0  0
   18.9514   20.0054   20.1540 H   0  0  0  0  0  0  0  0  0  0  0  0
   18.7863   18.6699   21.3002 H   0  0  0  0  0  0  0  0  0  0  0  0
  1  2  1  0  0  0  0
  1  3  1  0  0  0  0
  1  4  1  0  0  0  0
  1  5  1  0  0  0  0
  5  6  1  0  0  0  0
  5  7  1  0  0  0  0
  5  8  1  0  0  0  0
  8  9  1  0  0  0  0
  8 10  1  0  0  0  0
  8 11  1  0  0  0  0
 11 12  1  0  0  0  0
 11 13  1  0  0  0  0
 11 14  1  0  0  0  0
 14 15  1  0  0  0  0
 14 16  1  0  0  0  0
 14 17  1  0  0  0  0
 17 18  1  0  0  0  0
 17 19  1  0  0  0  0
 17 20  1  0  0  0  0
M  END
> <VConfSearch Rank>
320

> <Conf_Id>
67

> <Delta U+W>
5.353

> <U+W>
-6.425

> <U>
51.541

> <W>
-57.966

> <W(PB)>
-59.821

> <W(SA)>
1.855

> <Valence>
5.347

> <Coulomb>
45.870

> <VdW>
0.325

> <VdW6>
-6.161

> <VdW12>
6.486

> <Bond>
0.201

> <Angle>
1.485

> <Pdih>
3.662

> <Idih>
0.000

> <Tether>
0.000

$$$$
VeraChem MOL file


 20 19  0  0  0  0  0  0  0  0999 V2000     
   19.3025   16.3313   23.8059 N   0  3  0  0  0  0  0  0  0  0  0  0
   18.9114   15.8853   22.9701 H   0  0  0  0  0  0  0  0  0  0  0  0
   19.7534   15.5912   24.3541 H   0  0  0  0  0  0  0  0  0  0  0  0
   18.5126   16.6736   24.3621 H   0  0  0  0  0  0  0  0  0  0  0  0
   20.2718   17.4419   23.4546 C   0  0  0  0  0  0  0  0  0  0  0  0
   21.0992   17.0022   22.8912 H   0  0  0  0  0  0  0  0  0  0  0  0
   20.6703   17.8497   24.3876 H   0  0  0  0  0  0  0  0  0  0  0  0
   19.6260   18.5703   22.6305 C   0  0  0  0  0  0  0  0  0  0  0  0
   19.2131   18.1537   21.7021 H   0  0  0  0  0  0  0  0  0  0  0  0
   18.7857   18.9983   23.1933 H   0  0  0  0  0  0  0  0  0  0  0  0
   20.6463   19.6805   22.2941 C   0  0  0  0  0  0  0  0  0  0  0  0
   21.4881   19.2478   21.7356 H   0  0  0  0  0  0  0  0  0  0  0  0
   21.0612   20.0915   23.2250 H   0  0  0  0  0  0  0  0  0  0  0  0
   20.0089   20.8191   21.4665 C   0  0  0  0  0  0  0  0  0  0  0  0
   19.5944   20.4126   20.5332 H   0  0  0  0  0  0  0  0  0  0  0  0
   19.1676   21.2562   22.0225 H   0  0  0  0  0  0  0  0  0  0  0  0
   21.0319   21.9259   21.1326 C   0  0  0  0  0  0  0  0  0  0  0  0
   21.8694   21.5259   20.5463 H   0  0  0  0  0  0  0  0  0  0  0  0
   20.5609   22.7247   20.5451 H   0  0  0  0  0  0  0  0  0  0  0  0
   21.4392   22.3763   22.0472 H   0  0  0  0  0  0  0  0  0  0  0  0
  1  2  1  0  0  0  0
  1  3  1  0  0  0  0
  1  4  1  0  0  0  0
  1  5  1  0  0  0  0
  5  6  1  0  0  0  0
  5  7  1  0  0  0  0
  5  8  1  0  0  0  0
  8  9  1  0  0  0  0
  8 10  1  0  0  0  0
  8 11  1  0  0  0  0
 11 12  1  0  0  0  0
 11 13  1  0  0  0  0
 11 14  1  0  0  0  0
 14 15  1  0  0  0  0
 14 16  1  0  0  0  0
 14 17  1  0  0  0  0
 17 18  1  0  0  0  0
 17 19  1  0  0  0  0
 17 20  1  0  0  0  0
M  END
> <VConfSearch Rank>
321

> <Conf_Id>
72

> <Delta U+W>
0.000

> <U+W>
-11.778

> <U>
45.772

> <W>
-57.550

> <W(PB)>
-59.511

> <W(SA)>
1.961

> <Valence>
1.299

> <Coulomb>
44.177

> <VdW>
0.297

> <VdW6>
-3.490

> <VdW12>
3.786

> <Bond>
0.096

> <Angle>
0.381

> <Pdih>
0.822

> <Idih>
0.000

> <Tether>
0.000

$$$$
VeraChem MOL file


 20 19  0  0  0  0  0  0  0  0999 V2000     
   23.0693   18.7238   22.5585 N   0  3  0  0  0  0  0  0  0  0  0  0
   22.9521   17.9021   23.1597 H   0  0  0  0  0  0  0  0  0  0  0  0
   23.1790   18.3817   21.5987 H   0  0  0  0  0  0  0  0  0  0  0  0
   23.9591   19.1602   22.8219 H   0  0  0  0  0  0  0  0  0  0  0  0
   21.9087   19.6898   22.6865 C   0  0  0  0  0  0  0  0  0  0  0  0
   22.1145   20.5512   22.0452 H   0  0  0  0  0  0  0  0  0  0  0  0
   21.8698   20.0354   23.7231 H   0  0  0  0  0  0  0  0  0  0  0  0
   20.5563   19.0661   22.2977 C   0  0  0  0  0  0  0  0  0  0  0  0
   20.6050   18.7062   21.2614 H   0  0  0  0  0  0  0  0  0  0  0  0
   20.3687   18.1930   22.9352 H   0  0  0  0  0  0  0  0  0  0  0  0
   19.4026   20.0867   22.4409 C   0  0  0  0  0  0  0  0  0  0  0  0
   19.6451   20.9850   21.8560 H   0  0  0  0  0  0  0  0  0  0  0  0
   19.3241   20.4122   23.4875 H   0  0  0  0  0  0  0  0  0  0  0  0
   18.0339   19.5431   21.9638 C   0  0  0  0  0  0  0  0  0  0  0  0
   17.2982   20.3587   22.0007 H   0  0  0  0  0  0  0  0  0  0  0  0
   18.1015   19.2385   20.9099 H   0  0  0  0  0  0  0  0  0  0  0  0
   17.5113   18.3622   22.8135 C   0  0  0  0  0  0  0  0  0  0  0  0
   17.4610   18.6320   23.8764 H   0  0  0  0  0  0  0  0  0  0  0  0
   16.5015   18.0753   22.4925 H   0  0  0  0  0  0  0  0  0  0  0  0
   18.1522   17.4777   22.7129 H   0  0  0  0  0  0  0  0  0  0  0  0
  1  2  1  0  0  0  0
  1  3  1  0  0  0  0
  1  4  1  0  0  0  0
  1  5  1  0  0  0  0
  5  6  1  0  0  0  0
  5  7  1  0  0  0  0
  5  8  1  0  0  0  0
  8  9  1  0  0  0  0
  8 10  1  0  0  0  0
  8 11  1  0  0  0  0
 11 12  1  0  0  0  0
 11 13  1  0  0  0  0
 11 14  1  0  0  0  0
 14 15  1  0  0  0  0
 14 16  1  0  0  0  0
 14 17  1  0  0  0  0
 17 18  1  0  0  0  0
 17 19  1  0  0  0  0
 17 20  1  0  0  0  0
M  END
> <VConfSearch Rank>
322

> <Conf_Id>
42

> <Delta U+W>
0.508

> <U+W>
-11.270

> <U>
46.486

> <W>
-57.756

> <W(PB)>
-59.705

> <W(SA)>
1.949

> <Valence>
1.806

> <Coulomb>
44.248

> <VdW>
0.433

> <VdW6>
-4.089

> <VdW12>
4.522

> <Bond>
0.131

> <Angle>
0.628

> <Pdih>
1.047

> <Idih>
0.000

> <Tether>
0.000

$$$$
VeraChem MOL file


 20 19  0  0  0  0  0  0  0  0999 V2000     
   18.9268   19.2888   19.7515 N   0  3  0  0  0  0  0  0  0  0  0  0
   19.1471   18.3436   19.4224 H   0  0  0  0  0  0  0  0  0  0  0  0
   17.9823   19.2574   20.1481 H   0  0  0  0  0  0  0  0  0  0  0  0
   18.8807   19.8892   18.9214 H   0  0  0  0  0  0  0  0  0  0  0  0
   19.9460   19.7916   20.7539 C   0  0  0  0  0  0  0  0  0  0  0  0
   19.6670   20.8101   21.0372 H   0  0  0  0  0  0  0  0  0  0  0  0
   20.9190   19.8281   20.2564 H   0  0  0  0  0  0  0  0  0  0  0  0
   20.0412   18.9118   22.0134 C   0  0  0  0  0  0  0  0  0  0  0  0
   19.0559   18.8679   22.4943 H   0  0  0  0  0  0  0  0  0  0  0  0
   20.3061   17.8865   21.7229 H   0  0  0  0  0  0  0  0  0  0  0  0
   21.0934   19.4601   23.0061 C   0  0  0  0  0  0  0  0  0  0  0  0
   20.8040   20.4687   23.3325 H   0  0  0  0  0  0  0  0  0  0  0  0
   22.0547   19.5686   22.4847 H   0  0  0  0  0  0  0  0  0  0  0  0
   21.3044   18.5558   24.2448 C   0  0  0  0  0  0  0  0  0  0  0  0
   21.6172   17.5523   23.9238 H   0  0  0  0  0  0  0  0  0  0  0  0
   22.1353   18.9606   24.8395 H   0  0  0  0  0  0  0  0  0  0  0  0
   20.0536   18.4467   25.1466 C   0  0  0  0  0  0  0  0  0  0  0  0
   19.2292   17.9364   24.6334 H   0  0  0  0  0  0  0  0  0  0  0  0
   20.2829   17.8720   26.0534 H   0  0  0  0  0  0  0  0  0  0  0  0
   19.7035   19.4392   25.4586 H   0  0  0  0  0  0  0  0  0  0  0  0
  1  2  1  0  0  0  0
  1  3  1  0  0  0  0
  1  4  1  0  0  0  0
  1  5  1  0  0  0  0
  5  6  1  0  0  0  0
  5  7  1  0  0  0  0
  5  8  1  0  0  0  0
  8  9  1  0  0  0  0
  8 10  1  0  0  0  0
  8 11  1  0  0  0  0
 11 12  1  0  0  0  0
 11 13  1  0  0  0  0
 11 14  1  0  0  0  0
 14 15  1  0  0  0  0
 14 16  1  0  0  0  0
 14 17  1  0  0  0  0
 17 18  1  0  0  0  0
 17 19  1  0  0  0  0
 17 20  1  0  0  0  0
M  END
> <VConfSearch Rank>
323

> <Conf_Id>
41

> <Delta U+W>
0.515

> <U+W>
-11.263

> <U>
46.486

> <W>
-57.749

> <W(PB)>
-59.685

> <W(SA)>
1.936

> <Valence>
1.806

> <Coulomb>
44.248

> <VdW>
0.433

> <VdW6>
-4.089

> <VdW12>
4.522

> <Bond>
0.131

> <Angle>
0.628

> <Pdih>
1.047

> <Idih>
0.000

> <Tether>
0.000

$$$$
VeraChem MOL file


 20 19  0  0  0  0  0  0  0  0999 V2000     
   21.4273   21.5303   22.9510 N   0  3  0  0  0  0  0  0  0  0  0  0
   21.4146   22.5274   23.1904 H   0  0  0  0  0  0  0  0  0  0  0  0
   21.5773   21.0162   23.8240 H   0  0  0  0  0  0  0  0  0  0  0  0
   22.2523   21.3759   22.3630 H   0  0  0  0  0  0  0  0  0  0  0  0
   20.1495   21.1024   22.2552 C   0  0  0  0  0  0  0  0  0  0  0  0
   20.0366   21.7220   21.3614 H   0  0  0  0  0  0  0  0  0  0  0  0
   19.3108   21.3146   22.9238 H   0  0  0  0  0  0  0  0  0  0  0  0
   20.1265   19.6153   21.8502 C   0  0  0  0  0  0  0  0  0  0  0  0
   19.2209   19.4404   21.2561 H   0  0  0  0  0  0  0  0  0  0  0  0
   20.9797   19.4014   21.1930 H   0  0  0  0  0  0  0  0  0  0  0  0
   20.1438   18.6620   23.0717 C   0  0  0  0  0  0  0  0  0  0  0  0
   19.2751   18.8665   23.7127 H   0  0  0  0  0  0  0  0  0  0  0  0
   21.0332   18.8664   23.6823 H   0  0  0  0  0  0  0  0  0  0  0  0
   20.1583   17.1632   22.6837 C   0  0  0  0  0  0  0  0  0  0  0  0
   21.0332   16.9506   22.0535 H   0  0  0  0  0  0  0  0  0  0  0  0
   20.2853   16.5645   23.5966 H   0  0  0  0  0  0  0  0  0  0  0  0
   18.8722   16.7005   21.9615 C   0  0  0  0  0  0  0  0  0  0  0  0
   18.7644   17.1802   20.9809 H   0  0  0  0  0  0  0  0  0  0  0  0
   18.8941   15.6156   21.7961 H   0  0  0  0  0  0  0  0  0  0  0  0
   17.9796   16.9305   22.5577 H   0  0  0  0  0  0  0  0  0  0  0  0
  1  2  1  0  0  0  0
  1  3  1  0  0  0  0
  1  4  1  0  0  0  0
  1  5  1  0  0  0  0
  5  6  1  0  0  0  0
  5  7  1  0  0  0  0
  5  8  1  0  0  0  0
  8  9  1  0  0  0  0
  8 10  1  0  0  0  0
  8 11  1  0  0  0  0
 11 12  1  0  0  0  0
 11 13  1  0  0  0  0
 11 14  1  0  0  0  0
 14 15  1  0  0  0  0
 14 16  1  0  0  0  0
 14 17  1  0  0  0  0
 17 18  1  0  0  0  0
 17 19  1  0  0  0  0
 17 20  1  0  0  0  0
M  END
> <VConfSearch Rank>
324

> <Conf_Id>
33

> <Delta U+W>
0.703

> <U+W>
-11.075

> <U>
47.080

> <W>
-58.154

> <W(PB)>
-60.053

> <W(SA)>
1.899

> <Valence>
1.943

> <Coulomb>
44.572

> <VdW>
0.565

> <VdW6>
-4.575

> <VdW12>
5.139

> <Bond>
0.158

> <Angle>
0.700

> <Pdih>
1.085

> <Idih>
0.000

> <Tether>
0.000

$$$$
VeraChem MOL file


 20 19  0  0  0  0  0  0  0  0999 V2000     
   18.9376   21.3087   21.2713 N   0  3  0  0  0  0  0  0  0  0  0  0
   18.6389   21.8343   20.4430 H   0  0  0  0  0  0  0  0  0  0  0  0
   18.2769   21.5346   22.0214 H   0  0  0  0  0  0  0  0  0  0  0  0
   19.8498   21.6827   21.5486 H   0  0  0  0  0  0  0  0  0  0  0  0
   18.9966   19.8176   21.0005 C   0  0  0  0  0  0  0  0  0  0  0  0
   19.6979   19.6487   20.1789 H   0  0  0  0  0  0  0  0  0  0  0  0
   18.0033   19.5024   20.6694 H   0  0  0  0  0  0  0  0  0  0  0  0
   19.4167   18.9769   22.2222 C   0  0  0  0  0  0  0  0  0  0  0  0
   18.7208   19.1619   23.0511 H   0  0  0  0  0  0  0  0  0  0  0  0
   19.3132   17.9177   21.9557 H   0  0  0  0  0  0  0  0  0  0  0  0
   20.8708   19.2635   22.6745 C   0  0  0  0  0  0  0  0  0  0  0  0
   20.9781   20.3317   22.9049 H   0  0  0  0  0  0  0  0  0  0  0  0
   21.5633   19.0547   21.8473 H   0  0  0  0  0  0  0  0  0  0  0  0
   21.2987   18.4546   23.9233 C   0  0  0  0  0  0  0  0  0  0  0  0
   22.2925   18.7991   24.2423 H   0  0  0  0  0  0  0  0  0  0  0  0
   20.6170   18.6705   24.7579 H   0  0  0  0  0  0  0  0  0  0  0  0
   21.3565   16.9291   23.6800 C   0  0  0  0  0  0  0  0  0  0  0  0
   22.0077   16.6888   22.8296 H   0  0  0  0  0  0  0  0  0  0  0  0
   21.7559   16.4144   24.5636 H   0  0  0  0  0  0  0  0  0  0  0  0
   20.3612   16.5137   23.4798 H   0  0  0  0  0  0  0  0  0  0  0  0
  1  2  1  0  0  0  0
  1  3  1  0  0  0  0
  1  4  1  0  0  0  0
  1  5  1  0  0  0  0
  5  6  1  0  0  0  0
  5  7  1  0  0  0  0
  5  8  1  0  0  0  0
  8  9  1  0  0  0  0
  8 10  1  0  0  0  0
  8 11  1  0  0  0  0
 11 12  1  0  0  0  0
 11 13  1  0  0  0  0
 11 14  1  0  0  0  0
 14 15  1  0  0  0  0
 14 16  1  0  0  0  0
 14 17  1  0  0  0  0
 17 18  1  0  0  0  0
 17 19  1  0  0  0  0
 17 20  1  0  0  0  0
M  END
> <VConfSearch Rank>
325

> <Conf_Id>
24

> <Delta U+W>
0.847

> <U+W>
-10.931

> <U>
47.080

> <W>
-58.011

> <W(PB)>
-59.914

> <W(SA)>
1.903

> <Valence>
1.943

> <Coulomb>
44.572

> <VdW>
0.565

> <VdW6>
-4.575

> <VdW12>
5.140

> <Bond>
0.158

> <Angle>
0.700

> <Pdih>
1.085

> <Idih>
0.000

> <Tether>
0.000

$$$$
VeraChem MOL file


 20 19  0  0  0  0  0  0  0  0999 V2000     
   21.8467   20.9812   23.6997 N   0  3  0  0  0  0  0  0  0  0  0  0
   22.8608   20.8819   23.8142 H   0  0  0  0  0  0  0  0  0  0  0  0
   21.6975   21.6720   22.9575 H   0  0  0  0  0  0  0  0  0  0  0  0
   21.4884   21.3903   24.5684 H   0  0  0  0  0  0  0  0  0  0  0  0
   21.1833   19.6563   23.3821 C   0  0  0  0  0  0  0  0  0  0  0  0
   21.4066   18.9625   24.1970 H   0  0  0  0  0  0  0  0  0  0  0  0
   21.6335   19.2666   22.4654 H   0  0  0  0  0  0  0  0  0  0  0  0
   19.6577   19.7708   23.2030 C   0  0  0  0  0  0  0  0  0  0  0  0
   19.2207   20.2018   24.1135 H   0  0  0  0  0  0  0  0  0  0  0  0
   19.4322   20.4741   22.3912 H   0  0  0  0  0  0  0  0  0  0  0  0
   18.9827   18.4047   22.9234 C   0  0  0  0  0  0  0  0  0  0  0  0
   17.8997   18.5573   22.8187 H   0  0  0  0  0  0  0  0  0  0  0  0
   19.1128   17.7565   23.8011 H   0  0  0  0  0  0  0  0  0  0  0  0
   19.5132   17.6607   21.6711 C   0  0  0  0  0  0  0  0  0  0  0  0
   20.5734   17.4047   21.8023 H   0  0  0  0  0  0  0  0  0  0  0  0
   18.9813   16.7032   21.5811 H   0  0  0  0  0  0  0  0  0  0  0  0
   19.3293   18.4573   20.3593 C   0  0  0  0  0  0  0  0  0  0  0  0
   19.6335   17.8516   19.4959 H   0  0  0  0  0  0  0  0  0  0  0  0
   18.2794   18.7436   20.2150 H   0  0  0  0  0  0  0  0  0  0  0  0
   19.9388   19.3694   20.3531 H   0  0  0  0  0  0  0  0  0  0  0  0
  1  2  1  0  0  0  0
  1  3  1  0  0  0  0
  1  4  1  0  0  0  0
  1  5  1  0  0  0  0
  5  6  1  0  0  0  0
  5  7  1  0  0  0  0
  5  8  1  0  0  0  0
  8  9  1  0  0  0  0
  8 10  1  0  0  0  0
  8 11  1  0  0  0  0
 11 12  1  0  0  0  0
 11 13  1  0  0  0  0
 11 14  1  0  0  0  0
 14 15  1  0  0  0  0
 14 16  1  0  0  0  0
 14 17  1  0  0  0  0
 17 18  1  0  0  0  0
 17 19  1  0  0  0  0
 17 20  1  0  0  0  0
M  END
> <VConfSearch Rank>
326

> <Conf_Id>
64

> <Delta U+W>
0.707

> <U+W>
-11.070

> <U>
47.077

> <W>
-58.148

> <W(PB)>
-60.054

> <W(SA)>
1.906

> <Valence>
2.039

> <Coulomb>
44.655

> <VdW>
0.383

> <VdW6>
-4.912

> <VdW12>
5.295

> <Bond>
0.159

> <Angle>
0.856

> <Pdih>
1.024

> <Idih>
0.000

> <Tether>
0.000

$$$$
VeraChem MOL file


 20 19  0  0  0  0  0  0  0  0999 V2000     
   17.5461   18.3934   22.2832 N   0  3  0  0  0  0  0  0  0  0  0  0
   17.3534   17.6238   21.6346 H   0  0  0  0  0  0  0  0  0  0  0  0
   17.5448   17.9981   23.2287 H   0  0  0  0  0  0  0  0  0  0  0  0
   16.7484   19.0353   22.2281 H   0  0  0  0  0  0  0  0  0  0  0  0
   18.8529   19.0904   21.9624 C   0  0  0  0  0  0  0  0  0  0  0  0
   18.9772   19.9136   22.6708 H   0  0  0  0  0  0  0  0  0  0  0  0
   18.7736   19.5111   20.9564 H   0  0  0  0  0  0  0  0  0  0  0  0
   20.0730   18.1531   22.0369 C   0  0  0  0  0  0  0  0  0  0  0  0
   20.1482   17.7230   23.0438 H   0  0  0  0  0  0  0  0  0  0  0  0
   19.9190   17.3083   21.3524 H   0  0  0  0  0  0  0  0  0  0  0  0
   21.3982   18.8632   21.6636 C   0  0  0  0  0  0  0  0  0  0  0  0
   21.3508   19.1763   20.6114 H   0  0  0  0  0  0  0  0  0  0  0  0
   22.2210   18.1376   21.7258 H   0  0  0  0  0  0  0  0  0  0  0  0
   21.7437   20.0972   22.5360 C   0  0  0  0  0  0  0  0  0  0  0  0
   22.6866   20.5297   22.1732 H   0  0  0  0  0  0  0  0  0  0  0  0
   20.9838   20.8796   22.4048 H   0  0  0  0  0  0  0  0  0  0  0  0
   21.8939   19.7652   24.0381 C   0  0  0  0  0  0  0  0  0  0  0  0
   22.6341   18.9699   24.1946 H   0  0  0  0  0  0  0  0  0  0  0  0
   22.2286   20.6495   24.5957 H   0  0  0  0  0  0  0  0  0  0  0  0
   20.9419   19.4404   24.4760 H   0  0  0  0  0  0  0  0  0  0  0  0
  1  2  1  0  0  0  0
  1  3  1  0  0  0  0
  1  4  1  0  0  0  0
  1  5  1  0  0  0  0
  5  6  1  0  0  0  0
  5  7  1  0  0  0  0
  5  8  1  0  0  0  0
  8  9  1  0  0  0  0
  8 10  1  0  0  0  0
  8 11  1  0  0  0  0
 11 12  1  0  0  0  0
 11 13  1  0  0  0  0
 11 14  1  0  0  0  0
 14 15  1  0  0  0  0
 14 16  1  0  0  0  0
 14 17  1  0  0  0  0
 17 18  1  0  0  0  0
 17 19  1  0  0  0  0
 17 20  1  0  0  0  0
M  END
> <VConfSearch Rank>
327

> <Conf_Id>
22

> <Delta U+W>
0.731

> <U+W>
-11.047

> <U>
47.078

> <W>
-58.125

> <W(PB)>
-60.031

> <W(SA)>
1.906

> <Valence>
2.039

> <Coulomb>
44.655

> <VdW>
0.383

> <VdW6>
-4.913

> <VdW12>
5.296

> <Bond>
0.159

> <Angle>
0.856

> <Pdih>
1.024

> <Idih>
0.000

> <Tether>
0.000

$$$$
VeraChem MOL file


 20 19  0  0  0  0  0  0  0  0999 V2000     
   21.6990   17.4589   23.9727 N   0  3  0  0  0  0  0  0  0  0  0  0
   22.6097   17.9289   23.9806 H   0  0  0  0  0  0  0  0  0  0  0  0
   21.3906   17.3835   24.9471 H   0  0  0  0  0  0  0  0  0  0  0  0
   21.8603   16.5034   23.6374 H   0  0  0  0  0  0  0  0  0  0  0  0
   20.6894   18.1944   23.1144 C   0  0  0  0  0  0  0  0  0  0  0  0
   19.7552   17.6265   23.1292 H   0  0  0  0  0  0  0  0  0  0  0  0
   21.0718   18.2084   22.0913 H   0  0  0  0  0  0  0  0  0  0  0  0
   20.4289   19.6351   23.5887 C   0  0  0  0  0  0  0  0  0  0  0  0
   20.1611   19.6133   24.6535 H   0  0  0  0  0  0  0  0  0  0  0  0
   21.3567   20.2178   23.5145 H   0  0  0  0  0  0  0  0  0  0  0  0
   19.2978   20.3570   22.8133 C   0  0  0  0  0  0  0  0  0  0  0  0
   19.1398   21.3328   23.2933 H   0  0  0  0  0  0  0  0  0  0  0  0
   18.3508   19.8122   22.9302 H   0  0  0  0  0  0  0  0  0  0  0  0
   19.5911   20.6046   21.3106 C   0  0  0  0  0  0  0  0  0  0  0  0
   19.0395   21.5013   20.9950 H   0  0  0  0  0  0  0  0  0  0  0  0
   20.6549   20.8376   21.1630 H   0  0  0  0  0  0  0  0  0  0  0  0
   19.1643   19.4385   20.3882 C   0  0  0  0  0  0  0  0  0  0  0  0
   19.7378   18.5256   20.5794 H   0  0  0  0  0  0  0  0  0  0  0  0
   18.0993   19.2049   20.5158 H   0  0  0  0  0  0  0  0  0  0  0  0
   19.3205   19.7080   19.3356 H   0  0  0  0  0  0  0  0  0  0  0  0
  1  2  1  0  0  0  0
  1  3  1  0  0  0  0
  1  4  1  0  0  0  0
  1  5  1  0  0  0  0
  5  6  1  0  0  0  0
  5  7  1  0  0  0  0
  5  8  1  0  0  0  0
  8  9  1  0  0  0  0
  8 10  1  0  0  0  0
  8 11  1  0  0  0  0
 11 12  1  0  0  0  0
 11 13  1  0  0  0  0
 11 14  1  0  0  0  0
 14 15  1  0  0  0  0
 14 16  1  0  0  0  0
 14 17  1  0  0  0  0
 17 18  1  0  0  0  0
 17 19  1  0  0  0  0
 17 20  1  0  0  0  0
M  END
> <VConfSearch Rank>
328

> <Conf_Id>
61

> <Delta U+W>
2.669

> <U+W>
-9.108

> <U>
48.916

> <W>
-58.025

> <W(PB)>
-59.935

> <W(SA)>
1.911

> <Valence>
3.785

> <Coulomb>
44.716

> <VdW>
0.415

> <VdW6>
-4.836

> <VdW12>
5.251

> <Bond>
0.175

> <Angle>
1.195

> <Pdih>
2.415

> <Idih>
0.000

> <Tether>
0.000

$$$$
VeraChem MOL file


 20 19  0  0  0  0  0  0  0  0999 V2000     
   20.8648   20.3234   24.1878 N   0  3  0  0  0  0  0  0  0  0  0  0
   21.5995   20.4351   24.8945 H   0  0  0  0  0  0  0  0  0  0  0  0
   20.1451   21.0229   24.3953 H   0  0  0  0  0  0  0  0  0  0  0  0
   20.4430   19.4030   24.3357 H   0  0  0  0  0  0  0  0  0  0  0  0
   21.4104   20.4778   22.7810 C   0  0  0  0  0  0  0  0  0  0  0  0
   22.2110   19.7476   22.6354 H   0  0  0  0  0  0  0  0  0  0  0  0
   21.8494   21.4773   22.7182 H   0  0  0  0  0  0  0  0  0  0  0  0
   20.3526   20.3247   21.6679 C   0  0  0  0  0  0  0  0  0  0  0  0
   19.4311   20.8515   21.9491 H   0  0  0  0  0  0  0  0  0  0  0  0
   20.7318   20.8384   20.7745 H   0  0  0  0  0  0  0  0  0  0  0  0
   20.0384   18.8583   21.2743 C   0  0  0  0  0  0  0  0  0  0  0  0
   20.9608   18.3633   20.9403 H   0  0  0  0  0  0  0  0  0  0  0  0
   19.3682   18.8744   20.4037 H   0  0  0  0  0  0  0  0  0  0  0  0
   19.3803   18.0203   22.3954 C   0  0  0  0  0  0  0  0  0  0  0  0
   20.0922   17.8644   23.2156 H   0  0  0  0  0  0  0  0  0  0  0  0
   18.5173   18.5610   22.8087 H   0  0  0  0  0  0  0  0  0  0  0  0
   18.9178   16.6416   21.8775 C   0  0  0  0  0  0  0  0  0  0  0  0
   18.4622   16.0561   22.6866 H   0  0  0  0  0  0  0  0  0  0  0  0
   18.1718   16.7486   21.0792 H   0  0  0  0  0  0  0  0  0  0  0  0
   19.7634   16.0652   21.4799 H   0  0  0  0  0  0  0  0  0  0  0  0
  1  2  1  0  0  0  0
  1  3  1  0  0  0  0
  1  4  1  0  0  0  0
  1  5  1  0  0  0  0
  5  6  1  0  0  0  0
  5  7  1  0  0  0  0
  5  8  1  0  0  0  0
  8  9  1  0  0  0  0
  8 10  1  0  0  0  0
  8 11  1  0  0  0  0
 11 12  1  0  0  0  0
 11 13  1  0  0  0  0
 11 14  1  0  0  0  0
 14 15  1  0  0  0  0
 14 16  1  0  0  0  0
 14 17  1  0  0  0  0
 17 18  1  0  0  0  0
 17 19  1  0  0  0  0
 17 20  1  0  0  0  0
M  END
> <VConfSearch Rank>
329

> <Conf_Id>
69

> <Delta U+W>
2.811

> <U+W>
-8.967

> <U>
49.216

> <W>
-58.183

> <W(PB)>
-60.064

> <W(SA)>
1.881

> <Valence>
2.929

> <Coulomb>
46.006

> <VdW>
0.281

> <VdW6>
-4.909

> <VdW12>
5.190

> <Bond>
0.156

> <Angle>
0.974

> <Pdih>
1.799

> <Idih>
0.000

> <Tether>
0.000

$$$$
VeraChem MOL file


 20 19  0  0  0  0  0  0  0  0999 V2000     
   18.7621   18.1151   20.8687 N   0  3  0  0  0  0  0  0  0  0  0  0
   19.0831   17.6293   21.7101 H   0  0  0  0  0  0  0  0  0  0  0  0
   17.7895   18.3935   21.0326 H   0  0  0  0  0  0  0  0  0  0  0  0
   18.7494   17.4259   20.1094 H   0  0  0  0  0  0  0  0  0  0  0  0
   19.6390   19.3059   20.5318 C   0  0  0  0  0  0  0  0  0  0  0  0
   19.2325   19.7523   19.6201 H   0  0  0  0  0  0  0  0  0  0  0  0
   20.6471   18.9452   20.3107 H   0  0  0  0  0  0  0  0  0  0  0  0
   19.6984   20.3845   21.6339 C   0  0  0  0  0  0  0  0  0  0  0  0
   19.9909   21.3305   21.1593 H   0  0  0  0  0  0  0  0  0  0  0  0
   18.6961   20.5539   22.0493 H   0  0  0  0  0  0  0  0  0  0  0  0
   20.7117   20.0905   22.7699 C   0  0  0  0  0  0  0  0  0  0  0  0
   20.7524   20.9700   23.4274 H   0  0  0  0  0  0  0  0  0  0  0  0
   21.7185   19.9815   22.3432 H   0  0  0  0  0  0  0  0  0  0  0  0
   20.3755   18.8448   23.6228 C   0  0  0  0  0  0  0  0  0  0  0  0
   19.3322   18.8961   23.9645 H   0  0  0  0  0  0  0  0  0  0  0  0
   20.4771   17.9356   23.0170 H   0  0  0  0  0  0  0  0  0  0  0  0
   21.3078   18.7259   24.8474 C   0  0  0  0  0  0  0  0  0  0  0  0
   21.2100   19.5992   25.5055 H   0  0  0  0  0  0  0  0  0  0  0  0
   21.0627   17.8325   25.4363 H   0  0  0  0  0  0  0  0  0  0  0  0
   22.3582   18.6473   24.5378 H   0  0  0  0  0  0  0  0  0  0  0  0
  1  2  1  0  0  0  0
  1  3  1  0  0  0  0
  1  4  1  0  0  0  0
  1  5  1  0  0  0  0
  5  6  1  0  0  0  0
  5  7  1  0  0  0  0
  5  8  1  0  0  0  0
  8  9  1  0  0  0  0
  8 10  1  0  0  0  0
  8 11  1  0  0  0  0
 11 12  1  0  0  0  0
 11 13  1  0  0  0  0
 11 14  1  0  0  0  0
 14 15  1  0  0  0  0
 14 16  1  0  0  0  0
 14 17  1  0  0  0  0
 17 18  1  0  0  0  0
 17 19  1  0  0  0  0
 17 20  1  0  0  0  0
M  END
> <VConfSearch Rank>
330

> <Conf_Id>
26

> <Delta U+W>
2.809

> <U+W>
-8.969

> <U>
49.216

> <W>
-58.185

> <W(PB)>
-60.088

> <W(SA)>
1.903

> <Valence>
2.929

> <Coulomb>
46.006

> <VdW>
0.281

> <VdW6>
-4.909

> <VdW12>
5.190

> <Bond>
0.156

> <Angle>
0.974

> <Pdih>
1.799

> <Idih>
0.000

> <Tether>
0.000

$$$$
VeraChem MOL file


 20 19  0  0  0  0  0  0  0  0999 V2000     
   21.5082   21.1379   22.7767 N   0  3  0  0  0  0  0  0  0  0  0  0
   20.9485   21.0240   23.6268 H   0  0  0  0  0  0  0  0  0  0  0  0
   22.4877   20.9863   23.0366 H   0  0  0  0  0  0  0  0  0  0  0  0
   21.4238   22.1188   22.4903 H   0  0  0  0  0  0  0  0  0  0  0  0
   21.0626   20.1900   21.6804 C   0  0  0  0  0  0  0  0  0  0  0  0
   21.6785   20.3874   20.7988 H   0  0  0  0  0  0  0  0  0  0  0  0
   20.0252   20.4252   21.4285 H   0  0  0  0  0  0  0  0  0  0  0  0
   21.1796   18.7008   22.0634 C   0  0  0  0  0  0  0  0  0  0  0  0
   20.9118   18.0893   21.1923 H   0  0  0  0  0  0  0  0  0  0  0  0
   22.2302   18.4674   22.2814 H   0  0  0  0  0  0  0  0  0  0  0  0
   20.3034   18.2910   23.2764 C   0  0  0  0  0  0  0  0  0  0  0  0
   20.6818   18.7848   24.1815 H   0  0  0  0  0  0  0  0  0  0  0  0
   20.4260   17.2135   23.4530 H   0  0  0  0  0  0  0  0  0  0  0  0
   18.7937   18.6088   23.1250 C   0  0  0  0  0  0  0  0  0  0  0  0
   18.2763   18.2989   24.0438 H   0  0  0  0  0  0  0  0  0  0  0  0
   18.6396   19.6932   23.0435 H   0  0  0  0  0  0  0  0  0  0  0  0
   18.1357   17.8991   21.9199 C   0  0  0  0  0  0  0  0  0  0  0  0
   18.2899   16.8134   21.9688 H   0  0  0  0  0  0  0  0  0  0  0  0
   17.0538   18.0841   21.9086 H   0  0  0  0  0  0  0  0  0  0  0  0
   18.5424   18.2618   20.9677 H   0  0  0  0  0  0  0  0  0  0  0  0
  1  2  1  0  0  0  0
  1  3  1  0  0  0  0
  1  4  1  0  0  0  0
  1  5  1  0  0  0  0
  5  6  1  0  0  0  0
  5  7  1  0  0  0  0
  5  8  1  0  0  0  0
  8  9  1  0  0  0  0
  8 10  1  0  0  0  0
  8 11  1  0  0  0  0
 11 12  1  0  0  0  0
 11 13  1  0  0  0  0
 11 14  1  0  0  0  0
 14 15  1  0  0  0  0
 14 16  1  0  0  0  0
 14 17  1  0  0  0  0
 17 18  1  0  0  0  0
 17 19  1  0  0  0  0
 17 20  1  0  0  0  0
M  END
> <VConfSearch Rank>
331

> <Conf_Id>
2

> <Delta U+W>
0.994

> <U+W>
-10.784

> <U>
47.562

> <W>
-58.346

> <W(PB)>
-60.221

> <W(SA)>
1.875

> <Valence>
2.149

> <Coulomb>
45.034

> <VdW>
0.378

> <VdW6>
-5.599

> <VdW12>
5.977

> <Bond>
0.185

> <Angle>
0.935

> <Pdih>
1.028

> <Idih>
0.000

> <Tether>
0.000

$$$$
VeraChem MOL file


 20 19  0  0  0  0  0  0  0  0999 V2000     
   21.7787   18.5515   20.7334 N   0  3  0  0  0  0  0  0  0  0  0  0
   22.6740   18.1520   21.0319 H   0  0  0  0  0  0  0  0  0  0  0  0
   21.0897   17.7939   20.7473 H   0  0  0  0  0  0  0  0  0  0  0  0
   21.8910   18.8379   19.7554 H   0  0  0  0  0  0  0  0  0  0  0  0
   21.3564   19.7102   21.6155 C   0  0  0  0  0  0  0  0  0  0  0  0
   20.4166   20.1095   21.2253 H   0  0  0  0  0  0  0  0  0  0  0  0
   22.1181   20.4899   21.5284 H   0  0  0  0  0  0  0  0  0  0  0  0
   21.1826   19.3281   23.0994 C   0  0  0  0  0  0  0  0  0  0  0  0
   22.1406   18.9605   23.4903 H   0  0  0  0  0  0  0  0  0  0  0  0
   20.9534   20.2349   23.6737 H   0  0  0  0  0  0  0  0  0  0  0  0
   20.0851   18.2609   23.3513 C   0  0  0  0  0  0  0  0  0  0  0  0
   20.0109   18.0785   24.4322 H   0  0  0  0  0  0  0  0  0  0  0  0
   20.3992   17.3054   22.9102 H   0  0  0  0  0  0  0  0  0  0  0  0
   18.6821   18.6292   22.8044 C   0  0  0  0  0  0  0  0  0  0  0  0
   18.7126   18.7220   21.7104 H   0  0  0  0  0  0  0  0  0  0  0  0
   17.9937   17.7995   23.0176 H   0  0  0  0  0  0  0  0  0  0  0  0
   18.1053   19.9247   23.4191 C   0  0  0  0  0  0  0  0  0  0  0  0
   18.6987   20.8033   23.1370 H   0  0  0  0  0  0  0  0  0  0  0  0
   17.0790   20.0931   23.0681 H   0  0  0  0  0  0  0  0  0  0  0  0
   18.0795   19.8643   24.5149 H   0  0  0  0  0  0  0  0  0  0  0  0
  1  2  1  0  0  0  0
  1  3  1  0  0  0  0
  1  4  1  0  0  0  0
  1  5  1  0  0  0  0
  5  6  1  0  0  0  0
  5  7  1  0  0  0  0
  5  8  1  0  0  0  0
  8  9  1  0  0  0  0
  8 10  1  0  0  0  0
  8 11  1  0  0  0  0
 11 12  1  0  0  0  0
 11 13  1  0  0  0  0
 11 14  1  0  0  0  0
 14 15  1  0  0  0  0
 14 16  1  0  0  0  0
 14 17  1  0  0  0  0
 17 18  1  0  0  0  0
 17 19  1  0  0  0  0
 17 20  1  0  0  0  0
M  END
> <VConfSearch Rank>
332

> <Conf_Id>
1

> <Delta U+W>
1.032

> <U+W>
-10.746

> <U>
47.562

> <W>
-58.308

> <W(PB)>
-60.184

> <W(SA)>
1.877

> <Valence>
2.149

> <Coulomb>
45.035

> <VdW>
0.378

> <VdW6>
-5.599

> <VdW12>
5.978

> <Bond>
0.185

> <Angle>
0.935

> <Pdih>
1.028

> <Idih>
0.000

> <Tether>
0.000

$$$$
VeraChem MOL file


 20 19  0  0  0  0  0  0  0  0999 V2000     
   17.9922   18.5699   22.8273 N   0  3  0  0  0  0  0  0  0  0  0  0
   17.7395   18.0115   23.6485 H   0  0  0  0  0  0  0  0  0  0  0  0
   18.1379   19.5314   23.1480 H   0  0  0  0  0  0  0  0  0  0  0  0
   17.1730   18.5808   22.2108 H   0  0  0  0  0  0  0  0  0  0  0  0
   19.2179   18.0182   22.1251 C   0  0  0  0  0  0  0  0  0  0  0  0
   19.4106   18.6384   21.2482 H   0  0  0  0  0  0  0  0  0  0  0  0
   18.9716   17.0114   21.7770 H   0  0  0  0  0  0  0  0  0  0  0  0
   20.4727   17.9506   23.0216 C   0  0  0  0  0  0  0  0  0  0  0  0
   20.2344   17.3278   23.8941 H   0  0  0  0  0  0  0  0  0  0  0  0
   21.2739   17.4238   22.4866 H   0  0  0  0  0  0  0  0  0  0  0  0
   20.9938   19.3273   23.5148 C   0  0  0  0  0  0  0  0  0  0  0  0
   21.5771   19.1578   24.4305 H   0  0  0  0  0  0  0  0  0  0  0  0
   20.1585   19.9724   23.8161 H   0  0  0  0  0  0  0  0  0  0  0  0
   21.9099   20.0792   22.5151 C   0  0  0  0  0  0  0  0  0  0  0  0
   22.2868   20.9861   23.0086 H   0  0  0  0  0  0  0  0  0  0  0  0
   22.7946   19.4672   22.2906 H   0  0  0  0  0  0  0  0  0  0  0  0
   21.2210   20.4899   21.1950 C   0  0  0  0  0  0  0  0  0  0  0  0
   20.2708   21.0058   21.3843 H   0  0  0  0  0  0  0  0  0  0  0  0
   21.8646   21.1719   20.6246 H   0  0  0  0  0  0  0  0  0  0  0  0
   21.0285   19.6192   20.5571 H   0  0  0  0  0  0  0  0  0  0  0  0
  1  2  1  0  0  0  0
  1  3  1  0  0  0  0
  1  4  1  0  0  0  0
  1  5  1  0  0  0  0
  5  6  1  0  0  0  0
  5  7  1  0  0  0  0
  5  8  1  0  0  0  0
  8  9  1  0  0  0  0
  8 10  1  0  0  0  0
  8 11  1  0  0  0  0
 11 12  1  0  0  0  0
 11 13  1  0  0  0  0
 11 14  1  0  0  0  0
 14 15  1  0  0  0  0
 14 16  1  0  0  0  0
 14 17  1  0  0  0  0
 17 18  1  0  0  0  0
 17 19  1  0  0  0  0
 17 20  1  0  0  0  0
M  END
> <VConfSearch Rank>
333

> <Conf_Id>
80

> <Delta U+W>
2.920

> <U+W>
-8.857

> <U>
49.434

> <W>
-58.292

> <W(PB)>
-60.170

> <W(SA)>
1.879

> <Valence>
3.798

> <Coulomb>
45.253

> <VdW>
0.384

> <VdW6>
-5.595

> <VdW12>
5.979

> <Bond>
0.198

> <Angle>
1.368

> <Pdih>
2.231

> <Idih>
0.000

> <Tether>
0.000

$$$$
VeraChem MOL file


 20 19  0  0  0  0  0  0  0  0999 V2000     
   19.3313   20.6268   20.8532 N   0  3  0  0  0  0  0  0  0  0  0  0
   18.3956   20.4391   20.4799 H   0  0  0  0  0  0  0  0  0  0  0  0
   19.5915   21.5694   20.5450 H   0  0  0  0  0  0  0  0  0  0  0  0
   19.9757   19.9746   20.3971 H   0  0  0  0  0  0  0  0  0  0  0  0
   19.3730   20.4967   22.3635 C   0  0  0  0  0  0  0  0  0  0  0  0
   18.6955   21.2489   22.7767 H   0  0  0  0  0  0  0  0  0  0  0  0
   20.3843   20.7387   22.6940 H   0  0  0  0  0  0  0  0  0  0  0  0
   18.9576   19.1031   22.8812 C   0  0  0  0  0  0  0  0  0  0  0  0
   18.8874   19.1281   23.9766 H   0  0  0  0  0  0  0  0  0  0  0  0
   17.9418   18.8947   22.5199 H   0  0  0  0  0  0  0  0  0  0  0  0
   19.8930   17.9429   22.4459 C   0  0  0  0  0  0  0  0  0  0  0  0
   20.1848   18.0545   21.3937 H   0  0  0  0  0  0  0  0  0  0  0  0
   19.3148   17.0096   22.4914 H   0  0  0  0  0  0  0  0  0  0  0  0
   21.1537   17.7497   23.3276 C   0  0  0  0  0  0  0  0  0  0  0  0
   20.8529   17.5427   24.3642 H   0  0  0  0  0  0  0  0  0  0  0  0
   21.6819   16.8505   22.9807 H   0  0  0  0  0  0  0  0  0  0  0  0
   22.1413   18.9372   23.3067 C   0  0  0  0  0  0  0  0  0  0  0  0
   21.7400   19.8003   23.8507 H   0  0  0  0  0  0  0  0  0  0  0  0
   23.0842   18.6581   23.7946 H   0  0  0  0  0  0  0  0  0  0  0  0
   22.3742   19.2446   22.2791 H   0  0  0  0  0  0  0  0  0  0  0  0
  1  2  1  0  0  0  0
  1  3  1  0  0  0  0
  1  4  1  0  0  0  0
  1  5  1  0  0  0  0
  5  6  1  0  0  0  0
  5  7  1  0  0  0  0
  5  8  1  0  0  0  0
  8  9  1  0  0  0  0
  8 10  1  0  0  0  0
  8 11  1  0  0  0  0
 11 12  1  0  0  0  0
 11 13  1  0  0  0  0
 11 14  1  0  0  0  0
 14 15  1  0  0  0  0
 14 16  1  0  0  0  0
 14 17  1  0  0  0  0
 17 18  1  0  0  0  0
 17 19  1  0  0  0  0
 17 20  1  0  0  0  0
M  END
> <VConfSearch Rank>
334

> <Conf_Id>
65

> <Delta U+W>
2.949

> <U+W>
-8.829

> <U>
49.435

> <W>
-58.263

> <W(PB)>
-60.125

> <W(SA)>
1.862

> <Valence>
3.797

> <Coulomb>
45.253

> <VdW>
0.384

> <VdW6>
-5.596

> <VdW12>
5.980

> <Bond>
0.198

> <Angle>
1.369

> <Pdih>
2.230

> <Idih>
0.000

> <Tether>
0.000

$$$$
VeraChem MOL file


 20 19  0  0  0  0  0  0  0  0999 V2000     
   21.6891   18.2578   23.1322 N   0  3  0  0  0  0  0  0  0  0  0  0
   21.9571   17.7376   23.9743 H   0  0  0  0  0  0  0  0  0  0  0  0
   20.8899   17.7719   22.7138 H   0  0  0  0  0  0  0  0  0  0  0  0
   22.4709   18.1820   22.4737 H   0  0  0  0  0  0  0  0  0  0  0  0
   21.3553   19.7036   23.4451 C   0  0  0  0  0  0  0  0  0  0  0  0
   22.2518   20.1507   23.8831 H   0  0  0  0  0  0  0  0  0  0  0  0
   20.5629   19.7255   24.1979 H   0  0  0  0  0  0  0  0  0  0  0  0
   20.9311   20.5294   22.2136 C   0  0  0  0  0  0  0  0  0  0  0  0
   21.1177   21.5873   22.4412 H   0  0  0  0  0  0  0  0  0  0  0  0
   21.5814   20.2883   21.3623 H   0  0  0  0  0  0  0  0  0  0  0  0
   19.4401   20.3891   21.8050 C   0  0  0  0  0  0  0  0  0  0  0  0
   19.2669   21.0668   20.9575 H   0  0  0  0  0  0  0  0  0  0  0  0
   18.7939   20.7593   22.6130 H   0  0  0  0  0  0  0  0  0  0  0  0
   18.9969   18.9661   21.3793 C   0  0  0  0  0  0  0  0  0  0  0  0
   18.2579   19.0570   20.5707 H   0  0  0  0  0  0  0  0  0  0  0  0
   19.8416   18.4139   20.9461 H   0  0  0  0  0  0  0  0  0  0  0  0
   18.3425   18.1640   22.5293 C   0  0  0  0  0  0  0  0  0  0  0  0
   18.9906   18.0871   23.4089 H   0  0  0  0  0  0  0  0  0  0  0  0
   17.4081   18.6425   22.8505 H   0  0  0  0  0  0  0  0  0  0  0  0
   18.0957   17.1463   22.1996 H   0  0  0  0  0  0  0  0  0  0  0  0
  1  2  1  0  0  0  0
  1  3  1  0  0  0  0
  1  4  1  0  0  0  0
  1  5  1  0  0  0  0
  5  6  1  0  0  0  0
  5  7  1  0  0  0  0
  5  8  1  0  0  0  0
  8  9  1  0  0  0  0
  8 10  1  0  0  0  0
  8 11  1  0  0  0  0
 11 12  1  0  0  0  0
 11 13  1  0  0  0  0
 11 14  1  0  0  0  0
 14 15  1  0  0  0  0
 14 16  1  0  0  0  0
 14 17  1  0  0  0  0
 17 18  1  0  0  0  0
 17 19  1  0  0  0  0
 17 20  1  0  0  0  0
M  END
> <VConfSearch Rank>
335

> <Conf_Id>
77

> <Delta U+W>
5.366

> <U+W>
-6.412

> <U>
51.542

> <W>
-57.954

> <W(PB)>
-59.811

> <W(SA)>
1.857

> <Valence>
5.347

> <Coulomb>
45.870

> <VdW>
0.325

> <VdW6>
-6.161

> <VdW12>
6.486

> <Bond>
0.201

> <Angle>
1.484

> <Pdih>
3.662

> <Idih>
0.000

> <Tether>
0.000

$$$$
VeraChem MOL file


 20 19  0  0  0  0  0  0  0  0999 V2000     
   19.9973   20.4093   23.8524 N   0  3  0  0  0  0  0  0  0  0  0  0
   20.1468   20.0830   24.8124 H   0  0  0  0  0  0  0  0  0  0  0  0
   20.8780   20.2791   23.3455 H   0  0  0  0  0  0  0  0  0  0  0  0
   19.8203   21.4181   23.9046 H   0  0  0  0  0  0  0  0  0  0  0  0
   18.8569   19.6711   23.1785 C   0  0  0  0  0  0  0  0  0  0  0  0
   18.6984   20.1014   22.1861 H   0  0  0  0  0  0  0  0  0  0  0  0
   17.9597   19.8560   23.7755 H   0  0  0  0  0  0  0  0  0  0  0  0
   19.0783   18.1495   23.0607 C   0  0  0  0  0  0  0  0  0  0  0  0
   19.5063   17.7626   23.9950 H   0  0  0  0  0  0  0  0  0  0  0  0
   18.0924   17.6753   22.9654 H   0  0  0  0  0  0  0  0  0  0  0  0
   19.9393   17.6983   21.8503 C   0  0  0  0  0  0  0  0  0  0  0  0
   19.4373   17.9706   20.9115 H   0  0  0  0  0  0  0  0  0  0  0  0
   19.9678   16.5998   21.8592 H   0  0  0  0  0  0  0  0  0  0  0  0
   21.4003   18.2159   21.8419 C   0  0  0  0  0  0  0  0  0  0  0  0
   21.7583   18.3731   22.8682 H   0  0  0  0  0  0  0  0  0  0  0  0
   22.0465   17.4328   21.4206 H   0  0  0  0  0  0  0  0  0  0  0  0
   21.5877   19.4928   20.9885 C   0  0  0  0  0  0  0  0  0  0  0  0
   22.6219   19.8548   21.0557 H   0  0  0  0  0  0  0  0  0  0  0  0
   21.3792   19.2842   19.9309 H   0  0  0  0  0  0  0  0  0  0  0  0
   20.9234   20.3063   21.2992 H   0  0  0  0  0  0  0  0  0  0  0  0
  1  2  1  0  0  0  0
  1  3  1  0  0  0  0
  1  4  1  0  0  0  0
  1  5  1  0  0  0  0
  5  6  1  0  0  0  0
  5  7  1  0  0  0  0
  5  8  1  0  0  0  0
  8  9  1  0  0  0  0
  8 10  1  0  0  0  0
  8 11  1  0  0  0  0
 11 12  1  0  0  0  0
 11 13  1  0  0  0  0
 11 14  1  0  0  0  0
 14 15  1  0  0  0  0
 14 16  1  0  0  0  0
 14 17  1  0  0  0  0
 17 18  1  0  0  0  0
 17 19  1  0  0  0  0
 17 20  1  0  0  0  0
M  END
> <VConfSearch Rank>
336

> <Conf_Id>
67

> <Delta U+W>
5.353

> <U+W>
-6.425

> <U>
51.541

> <W>
-57.966

> <W(PB)>
-59.821

> <W(SA)>
1.855

> <Valence>
5.347

> <Coulomb>
45.870

> <VdW>
0.325

> <VdW6>
-6.161

> <VdW12>
6.486

> <Bond>
0.201

> <Angle>
1.485

> <Pdih>
3.662

> <Idih>
0.000

> <Tether>
0.000

$$$$
VeraChem MOL file


 20 19  0  0  0  0  0  0  0  0999 V2000     
   19.0243   17.4213   24.9463 N   0  3  0  0  0  0  0  0  0  0  0  0
   18.0468   17.7254   24.8964 H   0  0  0  0  0  0  0  0  0  0  0  0
   19.0153   16.4398   25.2435 H   0  0  0  0  0  0  0  0  0  0  0  0
   19.4679   17.9557   25.7000 H   0  0  0  0  0  0  0  0  0  0  0  0
   19.7424   17.6029   23.6243 C   0  0  0  0  0  0  0  0  0  0  0  0
   19.2367   16.9845   22.8778 H   0  0  0  0  0  0  0  0  0  0  0  0
   20.7644   17.2322   23.7417 H   0  0  0  0  0  0  0  0  0  0  0  0
   19.7739   19.0665   23.1490 C   0  0  0  0  0  0  0  0  0  0  0  0
   18.7459   19.4395   23.0479 H   0  0  0  0  0  0  0  0  0  0  0  0
   20.2683   19.6864   23.9088 H   0  0  0  0  0  0  0  0  0  0  0  0
   20.5138   19.2078   21.8001 C   0  0  0  0  0  0  0  0  0  0  0  0
   20.0196   18.5823   21.0437 H   0  0  0  0  0  0  0  0  0  0  0  0
   21.5402   18.8289   21.9036 H   0  0  0  0  0  0  0  0  0  0  0  0
   20.5515   20.6736   21.3129 C   0  0  0  0  0  0  0  0  0  0  0  0
   19.5266   21.0560   21.2061 H   0  0  0  0  0  0  0  0  0  0  0  0
   21.0471   21.3026   22.0658 H   0  0  0  0  0  0  0  0  0  0  0  0
   21.2915   20.8099   19.9650 C   0  0  0  0  0  0  0  0  0  0  0  0
   20.7988   20.2186   19.1822 H   0  0  0  0  0  0  0  0  0  0  0  0
   21.3078   21.8570   19.6357 H   0  0  0  0  0  0  0  0  0  0  0  0
   22.3312   20.4673   20.0487 H   0  0  0  0  0  0  0  0  0  0  0  0
  1  2  1  0  0  0  0
  1  3  1  0  0  0  0
  1  4  1  0  0  0  0
  1  5  1  0  0  0  0
  5  6  1  0  0  0  0
  5  7  1  0  0  0  0
  5  8  1  0  0  0  0
  8  9  1  0  0  0  0
  8 10  1  0  0  0  0
  8 11  1  0  0  0  0
 11 12  1  0  0  0  0
 11 13  1  0  0  0  0
 11 14  1  0  0  0  0
 14 15  1  0  0  0  0
 14 16  1  0  0  0  0
 14 17  1  0  0  0  0
 17 18  1  0  0  0  0
 17 19  1  0  0  0  0
 17 20  1  0  0  0  0
M  END
> <VConfSearch Rank>
337

> <Conf_Id>
72

> <Delta U+W>
0.000

> <U+W>
-11.778

> <U>
45.772

> <W>
-57.550

> <W(PB)>
-59.511

> <W(SA)>
1.961

> <Valence>
1.299

> <Coulomb>
44.177

> <VdW>
0.297

> <VdW6>
-3.490

> <VdW12>
3.786

> <Bond>
0.096

> <Angle>
0.381

> <Pdih>
0.822

> <Idih>
0.000

> <Tether>
0.000

$$$$
VeraChem MOL file


 20 19  0  0  0  0  0  0  0  0999 V2000     
   19.2969   19.4550   25.3637 N   0  3  0  0  0  0  0  0  0  0  0  0
   18.9163   20.3911   25.1929 H   0  0  0  0  0  0  0  0  0  0  0  0
   18.5077   18.8013   25.3477 H   0  0  0  0  0  0  0  0  0  0  0  0
   19.6644   19.4537   26.3210 H   0  0  0  0  0  0  0  0  0  0  0  0
   20.3614   19.0826   24.3514 C   0  0  0  0  0  0  0  0  0  0  0  0
   20.7421   18.0911   24.6114 H   0  0  0  0  0  0  0  0  0  0  0  0
   21.1813   19.8001   24.4442 H   0  0  0  0  0  0  0  0  0  0  0  0
   19.8423   19.0743   22.9024 C   0  0  0  0  0  0  0  0  0  0  0  0
   19.0090   18.3643   22.8175 H   0  0  0  0  0  0  0  0  0  0  0  0
   19.4470   20.0684   22.6585 H   0  0  0  0  0  0  0  0  0  0  0  0
   20.9599   18.6873   21.9052 C   0  0  0  0  0  0  0  0  0  0  0  0
   21.3947   17.7254   22.2109 H   0  0  0  0  0  0  0  0  0  0  0  0
   21.7737   19.4239   21.9571 H   0  0  0  0  0  0  0  0  0  0  0  0
   20.4673   18.5625   20.4429 C   0  0  0  0  0  0  0  0  0  0  0  0
   21.2931   18.1851   19.8236 H   0  0  0  0  0  0  0  0  0  0  0  0
   19.6694   17.8091   20.3823 H   0  0  0  0  0  0  0  0  0  0  0  0
   19.9675   19.8981   19.8463 C   0  0  0  0  0  0  0  0  0  0  0  0
   20.7377   20.6767   19.9203 H   0  0  0  0  0  0  0  0  0  0  0  0
   19.7168   19.7746   18.7848 H   0  0  0  0  0  0  0  0  0  0  0  0
   19.0656   20.2562   20.3578 H   0  0  0  0  0  0  0  0  0  0  0  0
  1  2  1  0  0  0  0
  1  3  1  0  0  0  0
  1  4  1  0  0  0  0
  1  5  1  0  0  0  0
  5  6  1  0  0  0  0
  5  7  1  0  0  0  0
  5  8  1  0  0  0  0
  8  9  1  0  0  0  0
  8 10  1  0  0  0  0
  8 11  1  0  0  0  0
 11 12  1  0  0  0  0
 11 13  1  0  0  0  0
 11 14  1  0  0  0  0
 14 15  1  0  0  0  0
 14 16  1  0  0  0  0
 14 17  1  0  0  0  0
 17 18  1  0  0  0  0
 17 19  1  0  0  0  0
 17 20  1  0  0  0  0
M  END
> <VConfSearch Rank>
338

> <Conf_Id>
42

> <Delta U+W>
0.508

> <U+W>
-11.270

> <U>
46.486

> <W>
-57.756

> <W(PB)>
-59.705

> <W(SA)>
1.949

> <Valence>
1.806

> <Coulomb>
44.248

> <VdW>
0.433

> <VdW6>
-4.089

> <VdW12>
4.522

> <Bond>
0.131

> <Angle>
0.628

> <Pdih>
1.047

> <Idih>
0.000

> <Tether>
0.000

$$$$
VeraChem MOL file


 20 19  0  0  0  0  0  0  0  0999 V2000     
   21.2383   21.5084   23.8413 N   0  3  0  0  0  0  0  0  0  0  0  0
   21.2843   21.1277   24.7917 H   0  0  0  0  0  0  0  0  0  0  0  0
   22.1597   21.3677   23.4154 H   0  0  0  0  0  0  0  0  0  0  0  0
   21.1048   22.5210   23.9329 H   0  0  0  0  0  0  0  0  0  0  0  0
   20.1333   20.8664   23.0268 C   0  0  0  0  0  0  0  0  0  0  0  0
   20.1228   21.3386   22.0407 H   0  0  0  0  0  0  0  0  0  0  0  0
   19.1817   21.0815   23.5204 H   0  0  0  0  0  0  0  0  0  0  0  0
   20.3030   19.3446   22.8700 C   0  0  0  0  0  0  0  0  0  0  0  0
   21.2684   19.1399   22.3901 H   0  0  0  0  0  0  0  0  0  0  0  0
   20.3290   18.8762   23.8629 H   0  0  0  0  0  0  0  0  0  0  0  0
   19.1537   18.7320   22.0352 C   0  0  0  0  0  0  0  0  0  0  0  0
   19.1565   19.1673   21.0262 H   0  0  0  0  0  0  0  0  0  0  0  0
   18.1930   19.0122   22.4893 H   0  0  0  0  0  0  0  0  0  0  0  0
   19.2187   17.1886   21.9332 C   0  0  0  0  0  0  0  0  0  0  0  0
   19.1921   16.7479   22.9397 H   0  0  0  0  0  0  0  0  0  0  0  0
   18.3163   16.8309   21.4179 H   0  0  0  0  0  0  0  0  0  0  0  0
   20.4628   16.6744   21.1734 C   0  0  0  0  0  0  0  0  0  0  0  0
   21.3893   16.9033   21.7143 H   0  0  0  0  0  0  0  0  0  0  0  0
   20.4143   15.5847   21.0501 H   0  0  0  0  0  0  0  0  0  0  0  0
   20.5282   17.1222   20.1733 H   0  0  0  0  0  0  0  0  0  0  0  0
  1  2  1  0  0  0  0
  1  3  1  0  0  0  0
  1  4  1  0  0  0  0
  1  5  1  0  0  0  0
  5  6  1  0  0  0  0
  5  7  1  0  0  0  0
  5  8  1  0  0  0  0
  8  9  1  0  0  0  0
  8 10  1  0  0  0  0
  8 11  1  0  0  0  0
 11 12  1  0  0  0  0
 11 13  1  0  0  0  0
 11 14  1  0  0  0  0
 14 15  1  0  0  0  0
 14 16  1  0  0  0  0
 14 17  1  0  0  0  0
 17 18  1  0  0  0  0
 17 19  1  0  0  0  0
 17 20  1  0  0  0  0
M  END
> <VConfSearch Rank>
339

> <Conf_Id>
41

> <Delta U+W>
0.515

> <U+W>
-11.263

> <U>
46.486

> <W>
-57.749

> <W(PB)>
-59.685

> <W(SA)>
1.936

> <Valence>
1.806

> <Coulomb>
44.248

> <VdW>
0.433

> <VdW6>
-4.089

> <VdW12>
4.522

> <Bond>
0.131

> <Angle>
0.628

> <Pdih>
1.047

> <Idih>
0.000

> <Tether>
0.000

$$$$
VeraChem MOL file


 20 19  0  0  0  0  0  0  0  0999 V2000     
   21.2263   16.6168   22.0339 N   0  3  0  0  0  0  0  0  0  0  0  0
   21.9315   15.9960   21.6231 H   0  0  0  0  0  0  0  0  0  0  0  0
   21.5385   16.8345   22.9847 H   0  0  0  0  0  0  0  0  0  0  0  0
   20.3620   16.0723   22.1161 H   0  0  0  0  0  0  0  0  0  0  0  0
   21.0277   17.8701   21.2033 C   0  0  0  0  0  0  0  0  0  0  0  0
   20.7398   17.5567   20.1961 H   0  0  0  0  0  0  0  0  0  0  0  0
   21.9876   18.3892   21.1360 H   0  0  0  0  0  0  0  0  0  0  0  0
   19.9581   18.8281   21.7637 C   0  0  0  0  0  0  0  0  0  0  0  0
   19.8101   19.6340   21.0342 H   0  0  0  0  0  0  0  0  0  0  0  0
   18.9995   18.2990   21.8465 H   0  0  0  0  0  0  0  0  0  0  0  0
   20.3536   19.4299   23.1358 C   0  0  0  0  0  0  0  0  0  0  0  0
   21.3018   19.9769   23.0402 H   0  0  0  0  0  0  0  0  0  0  0  0
   20.5362   18.6180   23.8521 H   0  0  0  0  0  0  0  0  0  0  0  0
   19.2747   20.3665   23.7322 C   0  0  0  0  0  0  0  0  0  0  0  0
   18.3276   19.8200   23.8426 H   0  0  0  0  0  0  0  0  0  0  0  0
   19.5817   20.6559   24.7470 H   0  0  0  0  0  0  0  0  0  0  0  0
   19.0418   21.6480   22.8995 C   0  0  0  0  0  0  0  0  0  0  0  0
   18.6142   21.4188   21.9157 H   0  0  0  0  0  0  0  0  0  0  0  0
   18.3413   22.3182   23.4144 H   0  0  0  0  0  0  0  0  0  0  0  0
   19.9803   22.1969   22.7479 H   0  0  0  0  0  0  0  0  0  0  0  0
  1  2  1  0  0  0  0
  1  3  1  0  0  0  0
  1  4  1  0  0  0  0
  1  5  1  0  0  0  0
  5  6  1  0  0  0  0
  5  7  1  0  0  0  0
  5  8  1  0  0  0  0
  8  9  1  0  0  0  0
  8 10  1  0  0  0  0
  8 11  1  0  0  0  0
 11 12  1  0  0  0  0
 11 13  1  0  0  0  0
 11 14  1  0  0  0  0
 14 15  1  0  0  0  0
 14 16  1  0  0  0  0
 14 17  1  0  0  0  0
 17 18  1  0  0  0  0
 17 19  1  0  0  0  0
 17 20  1  0  0  0  0
M  END
> <VConfSearch Rank>
340

> <Conf_Id>
33

> <Delta U+W>
0.703

> <U+W>
-11.075

> <U>
47.080

> <W>
-58.154

> <W(PB)>
-60.053

> <W(SA)>
1.899

> <Valence>
1.943

> <Coulomb>
44.572

> <VdW>
0.565

> <VdW6>
-4.575

> <VdW12>
5.139

> <Bond>
0.158

> <Angle>
0.700

> <Pdih>
1.085

> <Idih>
0.000

> <Tether>
0.000

$$$$
VeraChem MOL file


 20 19  0  0  0  0  0  0  0  0999 V2000     
   21.0447   20.5668   24.6473 N   0  3  0  0  0  0  0  0  0  0  0  0
   21.7975   20.9701   25.2149 H   0  0  0  0  0  0  0  0  0  0  0  0
   20.2248   21.1694   24.7688 H   0  0  0  0  0  0  0  0  0  0  0  0
   20.8157   19.6573   25.0588 H   0  0  0  0  0  0  0  0  0  0  0  0
   21.4438   20.4432   23.1893 C   0  0  0  0  0  0  0  0  0  0  0  0
   22.3334   19.8101   23.1328 H   0  0  0  0  0  0  0  0  0  0  0  0
   21.7144   21.4417   22.8351 H   0  0  0  0  0  0  0  0  0  0  0  0
   20.3373   19.8648   22.2855 C   0  0  0  0  0  0  0  0  0  0  0  0
   19.4395   20.4929   22.3578 H   0  0  0  0  0  0  0  0  0  0  0  0
   20.6820   19.9282   21.2459 H   0  0  0  0  0  0  0  0  0  0  0  0
   19.9879   18.3956   22.6327 C   0  0  0  0  0  0  0  0  0  0  0  0
   19.6785   18.3322   23.6843 H   0  0  0  0  0  0  0  0  0  0  0  0
   20.8857   17.7694   22.5363 H   0  0  0  0  0  0  0  0  0  0  0  0
   18.8524   17.8089   21.7590 C   0  0  0  0  0  0  0  0  0  0  0  0
   18.5914   16.8129   22.1433 H   0  0  0  0  0  0  0  0  0  0  0  0
   17.9477   18.4242   21.8625 H   0  0  0  0  0  0  0  0  0  0  0  0
   19.2270   17.6820   20.2645 C   0  0  0  0  0  0  0  0  0  0  0  0
   20.1469   17.0970   20.1359 H   0  0  0  0  0  0  0  0  0  0  0  0
   18.4270   17.1744   19.7101 H   0  0  0  0  0  0  0  0  0  0  0  0
   19.3759   18.6646   19.8002 H   0  0  0  0  0  0  0  0  0  0  0  0
  1  2  1  0  0  0  0
  1  3  1  0  0  0  0
  1  4  1  0  0  0  0
  1  5  1  0  0  0  0
  5  6  1  0  0  0  0
  5  7  1  0  0  0  0
  5  8  1  0  0  0  0
  8  9  1  0  0  0  0
  8 10  1  0  0  0  0
  8 11  1  0  0  0  0
 11 12  1  0  0  0  0
 11 13  1  0  0  0  0
 11 14  1  0  0  0  0
 14 15  1  0  0  0  0
 14 16  1  0  0  0  0
 14 17  1  0  0  0  0
 17 18  1  0  0  0  0
 17 19  1  0  0  0  0
 17 20  1  0  0  0  0
M  END
> <VConfSearch Rank>
341

> <Conf_Id>
24

> <Delta U+W>
0.847

> <U+W>
-10.931

> <U>
47.080

> <W>
-58.011

> <W(PB)>
-59.914

> <W(SA)>
1.903

> <Valence>
1.943

> <Coulomb>
44.572

> <VdW>
0.565

> <VdW6>
-4.575

> <VdW12>
5.140

> <Bond>
0.158

> <Angle>
0.700

> <Pdih>
1.085

> <Idih>
0.000

> <Tether>
0.000

$$$$
VeraChem MOL file


 20 19  0  0  0  0  0  0  0  0999 V2000     
   22.3798   20.7727   22.2746 N   0  3  0  0  0  0  0  0  0  0  0  0
   22.6850   21.3078   21.4549 H   0  0  0  0  0  0  0  0  0  0  0  0
   22.0062   21.4483   22.9485 H   0  0  0  0  0  0  0  0  0  0  0  0
   23.2217   20.3643   22.6928 H   0  0  0  0  0  0  0  0  0  0  0  0
   21.3592   19.7142   21.9082 C   0  0  0  0  0  0  0  0  0  0  0  0
   21.8126   19.0490   21.1685 H   0  0  0  0  0  0  0  0  0  0  0  0
   20.5070   20.2164   21.4427 H   0  0  0  0  0  0  0  0  0  0  0  0
   20.8789   18.8917   23.1188 C   0  0  0  0  0  0  0  0  0  0  0  0
   21.7471   18.4256   23.6033 H   0  0  0  0  0  0  0  0  0  0  0  0
   20.4317   19.5597   23.8660 H   0  0  0  0  0  0  0  0  0  0  0  0
   19.8701   17.7829   22.7279 C   0  0  0  0  0  0  0  0  0  0  0  0
   19.5799   17.2304   23.6322 H   0  0  0  0  0  0  0  0  0  0  0  0
   20.3748   17.0546   22.0781 H   0  0  0  0  0  0  0  0  0  0  0  0
   18.5920   18.2889   22.0111 C   0  0  0  0  0  0  0  0  0  0  0  0
   18.8540   18.7524   21.0502 H   0  0  0  0  0  0  0  0  0  0  0  0
   17.9620   17.4225   21.7655 H   0  0  0  0  0  0  0  0  0  0  0  0
   17.7644   19.2818   22.8586 C   0  0  0  0  0  0  0  0  0  0  0  0
   16.8273   19.5361   22.3467 H   0  0  0  0  0  0  0  0  0  0  0  0
   17.5071   18.8494   23.8342 H   0  0  0  0  0  0  0  0  0  0  0  0
   18.3106   20.2177   23.0302 H   0  0  0  0  0  0  0  0  0  0  0  0
  1  2  1  0  0  0  0
  1  3  1  0  0  0  0
  1  4  1  0  0  0  0
  1  5  1  0  0  0  0
  5  6  1  0  0  0  0
  5  7  1  0  0  0  0
  5  8  1  0  0  0  0
  8  9  1  0  0  0  0
  8 10  1  0  0  0  0
  8 11  1  0  0  0  0
 11 12  1  0  0  0  0
 11 13  1  0  0  0  0
 11 14  1  0  0  0  0
 14 15  1  0  0  0  0
 14 16  1  0  0  0  0
 14 17  1  0  0  0  0
 17 18  1  0  0  0  0
 17 19  1  0  0  0  0
 17 20  1  0  0  0  0
M  END
> <VConfSearch Rank>
342

> <Conf_Id>
64

> <Delta U+W>
0.707

> <U+W>
-11.070

> <U>
47.077

> <W>
-58.148

> <W(PB)>
-60.054

> <W(SA)>
1.906

> <Valence>
2.039

> <Coulomb>
44.655

> <VdW>
0.383

> <VdW6>
-4.912

> <VdW12>
5.295

> <Bond>
0.159

> <Angle>
0.856

> <Pdih>
1.024

> <Idih>
0.000

> <Tether>
0.000

$$$$
VeraChem MOL file


 20 19  0  0  0  0  0  0  0  0999 V2000     
   21.4361   17.3895   24.2835 N   0  3  0  0  0  0  0  0  0  0  0  0
   21.6636   17.8261   25.1823 H   0  0  0  0  0  0  0  0  0  0  0  0
   20.5727   16.8542   24.4186 H   0  0  0  0  0  0  0  0  0  0  0  0
   22.1791   16.7110   24.0862 H   0  0  0  0  0  0  0  0  0  0  0  0
   21.2999   18.4137   23.1749 C   0  0  0  0  0  0  0  0  0  0  0  0
   21.0886   17.8772   22.2462 H   0  0  0  0  0  0  0  0  0  0  0  0
   22.2606   18.9242   23.0664 H   0  0  0  0  0  0  0  0  0  0  0  0
   20.1905   19.4488   23.4402 C   0  0  0  0  0  0  0  0  0  0  0  0
   19.2271   18.9366   23.5583 H   0  0  0  0  0  0  0  0  0  0  0  0
   20.3903   19.9524   24.3953 H   0  0  0  0  0  0  0  0  0  0  0  0
   20.0888   20.5180   22.3237 C   0  0  0  0  0  0  0  0  0  0  0  0
   21.0183   21.1037   22.3052 H   0  0  0  0  0  0  0  0  0  0  0  0
   19.2901   21.2272   22.5814 H   0  0  0  0  0  0  0  0  0  0  0  0
   19.8267   19.9535   20.9038 C   0  0  0  0  0  0  0  0  0  0  0  0
   19.7924   20.7922   20.1944 H   0  0  0  0  0  0  0  0  0  0  0  0
   20.6682   19.3236   20.5845 H   0  0  0  0  0  0  0  0  0  0  0  0
   18.5082   19.1544   20.7939 C   0  0  0  0  0  0  0  0  0  0  0  0
   17.6528   19.7561   21.1275 H   0  0  0  0  0  0  0  0  0  0  0  0
   18.3242   18.8577   19.7532 H   0  0  0  0  0  0  0  0  0  0  0  0
   18.5409   18.2384   21.3968 H   0  0  0  0  0  0  0  0  0  0  0  0
  1  2  1  0  0  0  0
  1  3  1  0  0  0  0
  1  4  1  0  0  0  0
  1  5  1  0  0  0  0
  5  6  1  0  0  0  0
  5  7  1  0  0  0  0
  5  8  1  0  0  0  0
  8  9  1  0  0  0  0
  8 10  1  0  0  0  0
  8 11  1  0  0  0  0
 11 12  1  0  0  0  0
 11 13  1  0  0  0  0
 11 14  1  0  0  0  0
 14 15  1  0  0  0  0
 14 16  1  0  0  0  0
 14 17  1  0  0  0  0
 17 18  1  0  0  0  0
 17 19  1  0  0  0  0
 17 20  1  0  0  0  0
M  END
> <VConfSearch Rank>
343

> <Conf_Id>
22

> <Delta U+W>
0.731

> <U+W>
-11.047

> <U>
47.078

> <W>
-58.125

> <W(PB)>
-60.031

> <W(SA)>
1.906

> <Valence>
2.039

> <Coulomb>
44.655

> <VdW>
0.383

> <VdW6>
-4.913

> <VdW12>
5.296

> <Bond>
0.159

> <Angle>
0.856

> <Pdih>
1.024

> <Idih>
0.000

> <Tether>
0.000

$$$$
VeraChem MOL file


 20 19  0  0  0  0  0  0  0  0999 V2000     
   21.3402   18.2747   20.1899 N   0  3  0  0  0  0  0  0  0  0  0  0
   21.8468   17.4498   20.5265 H   0  0  0  0  0  0  0  0  0  0  0  0
   20.6569   17.9475   19.4998 H   0  0  0  0  0  0  0  0  0  0  0  0
   22.0184   18.8545   19.6846 H   0  0  0  0  0  0  0  0  0  0  0  0
   20.6814   19.0359   21.3226 C   0  0  0  0  0  0  0  0  0  0  0  0
   20.1855   19.9128   20.8976 H   0  0  0  0  0  0  0  0  0  0  0  0
   21.4707   19.3755   21.9971 H   0  0  0  0  0  0  0  0  0  0  0  0
   19.6608   18.1907   22.1053 C   0  0  0  0  0  0  0  0  0  0  0  0
   18.9426   17.7582   21.3960 H   0  0  0  0  0  0  0  0  0  0  0  0
   20.1747   17.3446   22.5806 H   0  0  0  0  0  0  0  0  0  0  0  0
   18.8733   18.9885   23.1754 C   0  0  0  0  0  0  0  0  0  0  0  0
   18.1186   18.3128   23.6013 H   0  0  0  0  0  0  0  0  0  0  0  0
   18.3082   19.8029   22.7011 H   0  0  0  0  0  0  0  0  0  0  0  0
   19.7330   19.5419   24.3415 C   0  0  0  0  0  0  0  0  0  0  0  0
   19.0962   19.6161   25.2342 H   0  0  0  0  0  0  0  0  0  0  0  0
   20.5303   18.8305   24.5984 H   0  0  0  0  0  0  0  0  0  0  0  0
   20.3307   20.9426   24.0700 C   0  0  0  0  0  0  0  0  0  0  0  0
   21.0519   20.9344   23.2461 H   0  0  0  0  0  0  0  0  0  0  0  0
   19.5425   21.6664   23.8257 H   0  0  0  0  0  0  0  0  0  0  0  0
   20.8559   21.3123   24.9602 H   0  0  0  0  0  0  0  0  0  0  0  0
  1  2  1  0  0  0  0
  1  3  1  0  0  0  0
  1  4  1  0  0  0  0
  1  5  1  0  0  0  0
  5  6  1  0  0  0  0
  5  7  1  0  0  0  0
  5  8  1  0  0  0  0
  8  9  1  0  0  0  0
  8 10  1  0  0  0  0
  8 11  1  0  0  0  0
 11 12  1  0  0  0  0
 11 13  1  0  0  0  0
 11 14  1  0  0  0  0
 14 15  1  0  0  0  0
 14 16  1  0  0  0  0
 14 17  1  0  0  0  0
 17 18  1  0  0  0  0
 17 19  1  0  0  0  0
 17 20  1  0  0  0  0
M  END
> <VConfSearch Rank>
344

> <Conf_Id>
61

> <Delta U+W>
2.669

> <U+W>
-9.108

> <U>
48.916

> <W>
-58.025

> <W(PB)>
-59.935

> <W(SA)>
1.911

> <Valence>
3.785

> <Coulomb>
44.716

> <VdW>
0.415

> <VdW6>
-4.836

> <VdW12>
5.251

> <Bond>
0.175

> <Angle>
1.195

> <Pdih>
2.415

> <Idih>
0.000

> <Tether>
0.000

$$$$
VeraChem MOL file


 20 19  0  0  0  0  0  0  0  0999 V2000     
   20.5190   20.1298   24.4121 N   0  3  0  0  0  0  0  0  0  0  0  0
   21.2057   20.3020   25.1541 H   0  0  0  0  0  0  0  0  0  0  0  0
   19.6413   20.5644   24.7138 H   0  0  0  0  0  0  0  0  0  0  0  0
   20.3599   19.1196   24.3785 H   0  0  0  0  0  0  0  0  0  0  0  0
   20.9868   20.6751   23.0763 C   0  0  0  0  0  0  0  0  0  0  0  0
   21.9514   20.2216   22.8330 H   0  0  0  0  0  0  0  0  0  0  0  0
   21.1423   21.7494   23.2083 H   0  0  0  0  0  0  0  0  0  0  0  0
   19.9950   20.4518   21.9153 C   0  0  0  0  0  0  0  0  0  0  0  0
   18.9697   20.6561   22.2514 H   0  0  0  0  0  0  0  0  0  0  0  0
   20.2126   21.2005   21.1420 H   0  0  0  0  0  0  0  0  0  0  0  0
   20.0787   19.0510   21.2562 C   0  0  0  0  0  0  0  0  0  0  0  0
   21.0957   18.8865   20.8738 H   0  0  0  0  0  0  0  0  0  0  0  0
   19.4182   19.0466   20.3781 H   0  0  0  0  0  0  0  0  0  0  0  0
   19.6815   17.8801   22.1854 C   0  0  0  0  0  0  0  0  0  0  0  0
   20.4190   17.7722   22.9907 H   0  0  0  0  0  0  0  0  0  0  0  0
   18.7106   18.0891   22.6560 H   0  0  0  0  0  0  0  0  0  0  0  0
   19.5975   16.5456   21.4141 C   0  0  0  0  0  0  0  0  0  0  0  0
   19.3244   15.7240   22.0889 H   0  0  0  0  0  0  0  0  0  0  0  0
   18.8405   16.5942   20.6205 H   0  0  0  0  0  0  0  0  0  0  0  0
   20.5614   16.2953   20.9520 H   0  0  0  0  0  0  0  0  0  0  0  0
  1  2  1  0  0  0  0
  1  3  1  0  0  0  0
  1  4  1  0  0  0  0
  1  5  1  0  0  0  0
  5  6  1  0  0  0  0
  5  7  1  0  0  0  0
  5  8  1  0  0  0  0
  8  9  1  0  0  0  0
  8 10  1  0  0  0  0
  8 11  1  0  0  0  0
 11 12  1  0  0  0  0
 11 13  1  0  0  0  0
 11 14  1  0  0  0  0
 14 15  1  0  0  0  0
 14 16  1  0  0  0  0
 14 17  1  0  0  0  0
 17 18  1  0  0  0  0
 17 19  1  0  0  0  0
 17 20  1  0  0  0  0
M  END
> <VConfSearch Rank>
345

> <Conf_Id>
69

> <Delta U+W>
2.811

> <U+W>
-8.967

> <U>
49.216

> <W>
-58.183

> <W(PB)>
-60.064

> <W(SA)>
1.881

> <Valence>
2.929

> <Coulomb>
46.006

> <VdW>
0.281

> <VdW6>
-4.909

> <VdW12>
5.190

> <Bond>
0.156

> <Angle>
0.974

> <Pdih>
1.799

> <Idih>
0.000

> <Tether>
0.000

$$$$
VeraChem MOL file


 20 19  0  0  0  0  0  0  0  0999 V2000     
   21.6340   17.6263   21.7365 N   0  3  0  0  0  0  0  0  0  0  0  0
   20.7880   17.3419   22.2370 H   0  0  0  0  0  0  0  0  0  0  0  0
   21.4758   17.4352   20.7421 H   0  0  0  0  0  0  0  0  0  0  0  0
   22.3886   17.0027   22.0420 H   0  0  0  0  0  0  0  0  0  0  0  0
   21.9754   19.0836   21.9820 C   0  0  0  0  0  0  0  0  0  0  0  0
   22.8917   19.2938   21.4235 H   0  0  0  0  0  0  0  0  0  0  0  0
   22.1901   19.2171   23.0457 H   0  0  0  0  0  0  0  0  0  0  0  0
   20.8804   20.0769   21.5396 C   0  0  0  0  0  0  0  0  0  0  0  0
   21.3603   21.0510   21.3756 H   0  0  0  0  0  0  0  0  0  0  0  0
   20.4702   19.7763   20.5664 H   0  0  0  0  0  0  0  0  0  0  0  0
   19.7385   20.2780   22.5688 C   0  0  0  0  0  0  0  0  0  0  0  0
   19.0867   21.0835   22.2029 H   0  0  0  0  0  0  0  0  0  0  0  0
   20.1603   20.6346   23.5187 H   0  0  0  0  0  0  0  0  0  0  0  0
   18.8785   19.0187   22.8270 C   0  0  0  0  0  0  0  0  0  0  0  0
   18.5413   18.5938   21.8711 H   0  0  0  0  0  0  0  0  0  0  0  0
   19.4777   18.2513   23.3329 H   0  0  0  0  0  0  0  0  0  0  0  0
   17.6494   19.3397   23.7041 C   0  0  0  0  0  0  0  0  0  0  0  0
   16.9976   20.0769   23.2174 H   0  0  0  0  0  0  0  0  0  0  0  0
   17.0555   18.4345   23.8858 H   0  0  0  0  0  0  0  0  0  0  0  0
   17.9543   19.7435   24.6784 H   0  0  0  0  0  0  0  0  0  0  0  0
  1  2  1  0  0  0  0
  1  3  1  0  0  0  0
  1  4  1  0  0  0  0
  1  5  1  0  0  0  0
  5  6  1  0  0  0  0
  5  7  1  0  0  0  0
  5  8  1  0  0  0  0
  8  9  1  0  0  0  0
  8 10  1  0  0  0  0
  8 11  1  0  0  0  0
 11 12  1  0  0  0  0
 11 13  1  0  0  0  0
 11 14  1  0  0  0  0
 14 15  1  0  0  0  0
 14 16  1  0  0  0  0
 14 17  1  0  0  0  0
 17 18  1  0  0  0  0
 17 19  1  0  0  0  0
 17 20  1  0  0  0  0
M  END
> <VConfSearch Rank>
346

> <Conf_Id>
26

> <Delta U+W>
2.809

> <U+W>
-8.969

> <U>
49.216

> <W>
-58.185

> <W(PB)>
-60.088

> <W(SA)>
1.903

> <Valence>
2.929

> <Coulomb>
46.006

> <VdW>
0.281

> <VdW6>
-4.909

> <VdW12>
5.190

> <Bond>
0.156

> <Angle>
0.974

> <Pdih>
1.799

> <Idih>
0.000

> <Tether>
0.000

$$$$
VeraChem MOL file


 20 19  0  0  0  0  0  0  0  0999 V2000     
   19.8273   17.9834   20.3782 N   0  3  0  0  0  0  0  0  0  0  0  0
   20.5637   18.6783   20.2241 H   0  0  0  0  0  0  0  0  0  0  0  0
   20.2621   17.0588   20.2992 H   0  0  0  0  0  0  0  0  0  0  0  0
   19.1651   18.0693   19.6001 H   0  0  0  0  0  0  0  0  0  0  0  0
   19.1480   18.1741   21.7203 C   0  0  0  0  0  0  0  0  0  0  0  0
   18.3579   17.4229   21.8034 H   0  0  0  0  0  0  0  0  0  0  0  0
   18.6790   19.1615   21.7267 H   0  0  0  0  0  0  0  0  0  0  0  0
   20.1049   18.0454   22.9229 C   0  0  0  0  0  0  0  0  0  0  0  0
   19.5209   18.1199   23.8492 H   0  0  0  0  0  0  0  0  0  0  0  0
   20.5442   17.0391   22.9263 H   0  0  0  0  0  0  0  0  0  0  0  0
   21.2431   19.0994   22.9387 C   0  0  0  0  0  0  0  0  0  0  0  0
   21.9203   18.9158   22.0938 H   0  0  0  0  0  0  0  0  0  0  0  0
   21.8497   18.9512   23.8428 H   0  0  0  0  0  0  0  0  0  0  0  0
   20.7653   20.5733   22.8879 C   0  0  0  0  0  0  0  0  0  0  0  0
   21.6480   21.2280   22.8818 H   0  0  0  0  0  0  0  0  0  0  0  0
   20.2377   20.7699   21.9448 H   0  0  0  0  0  0  0  0  0  0  0  0
   19.8625   20.9664   24.0793 C   0  0  0  0  0  0  0  0  0  0  0  0
   20.3611   20.7639   25.0360 H   0  0  0  0  0  0  0  0  0  0  0  0
   19.6252   22.0376   24.0448 H   0  0  0  0  0  0  0  0  0  0  0  0
   18.9128   20.4174   24.0633 H   0  0  0  0  0  0  0  0  0  0  0  0
  1  2  1  0  0  0  0
  1  3  1  0  0  0  0
  1  4  1  0  0  0  0
  1  5  1  0  0  0  0
  5  6  1  0  0  0  0
  5  7  1  0  0  0  0
  5  8  1  0  0  0  0
  8  9  1  0  0  0  0
  8 10  1  0  0  0  0
  8 11  1  0  0  0  0
 11 12  1  0  0  0  0
 11 13  1  0  0  0  0
 11 14  1  0  0  0  0
 14 15  1  0  0  0  0
 14 16  1  0  0  0  0
 14 17  1  0  0  0  0
 17 18  1  0  0  0  0
 17 19  1  0  0  0  0
 17 20  1  0  0  0  0
M  END
> <VConfSearch Rank>
347

> <Conf_Id>
2

> <Delta U+W>
0.994

> <U+W>
-10.784

> <U>
47.562

> <W>
-58.346

> <W(PB)>
-60.221

> <W(SA)>
1.875

> <Valence>
2.149

> <Coulomb>
45.034

> <VdW>
0.378

> <VdW6>
-5.599

> <VdW12>
5.977

> <Bond>
0.185

> <Angle>
0.935

> <Pdih>
1.028

> <Idih>
0.000

> <Tether>
0.000

$$$$
VeraChem MOL file


 20 19  0  0  0  0  0  0  0  0999 V2000     
   18.9352   18.6505   24.4974 N   0  3  0  0  0  0  0  0  0  0  0  0
   18.7464   19.4501   25.1098 H   0  0  0  0  0  0  0  0  0  0  0  0
   18.2545   18.6874   23.7330 H   0  0  0  0  0  0  0  0  0  0  0  0
   18.7324   17.8046   25.0401 H   0  0  0  0  0  0  0  0  0  0  0  0
   20.3605   18.6606   23.9804 C   0  0  0  0  0  0  0  0  0  0  0  0
   20.5049   17.7692   23.3643 H   0  0  0  0  0  0  0  0  0  0  0  0
   21.0283   18.5882   24.8432 H   0  0  0  0  0  0  0  0  0  0  0  0
   20.7145   19.9199   23.1636 C   0  0  0  0  0  0  0  0  0  0  0  0
   20.5988   20.8061   23.8014 H   0  0  0  0  0  0  0  0  0  0  0  0
   21.7782   19.8806   22.8961 H   0  0  0  0  0  0  0  0  0  0  0  0
   19.8612   20.0996   21.8804 C   0  0  0  0  0  0  0  0  0  0  0  0
   20.2051   20.9984   21.3502 H   0  0  0  0  0  0  0  0  0  0  0  0
   18.8192   20.3021   22.1622 H   0  0  0  0  0  0  0  0  0  0  0  0
   19.8925   18.8954   20.9047 C   0  0  0  0  0  0  0  0  0  0  0  0
   19.4621   18.0059   21.3843 H   0  0  0  0  0  0  0  0  0  0  0  0
   19.2416   19.1210   20.0483 H   0  0  0  0  0  0  0  0  0  0  0  0
   21.3090   18.5680   20.3803 C   0  0  0  0  0  0  0  0  0  0  0  0
   21.9682   18.2254   21.1876 H   0  0  0  0  0  0  0  0  0  0  0  0
   21.2657   17.7694   19.6284 H   0  0  0  0  0  0  0  0  0  0  0  0
   21.7689   19.4469   19.9101 H   0  0  0  0  0  0  0  0  0  0  0  0
  1  2  1  0  0  0  0
  1  3  1  0  0  0  0
  1  4  1  0  0  0  0
  1  5  1  0  0  0  0
  5  6  1  0  0  0  0
  5  7  1  0  0  0  0
  5  8  1  0  0  0  0
  8  9  1  0  0  0  0
  8 10  1  0  0  0  0
  8 11  1  0  0  0  0
 11 12  1  0  0  0  0
 11 13  1  0  0  0  0
 11 14  1  0  0  0  0
 14 15  1  0  0  0  0
 14 16  1  0  0  0  0
 14 17  1  0  0  0  0
 17 18  1  0  0  0  0
 17 19  1  0  0  0  0
 17 20  1  0  0  0  0
M  END
> <VConfSearch Rank>
348

> <Conf_Id>
1

> <Delta U+W>
1.032

> <U+W>
-10.746

> <U>
47.562

> <W>
-58.308

> <W(PB)>
-60.184

> <W(SA)>
1.877

> <Valence>
2.149

> <Coulomb>
45.035

> <VdW>
0.378

> <VdW6>
-5.599

> <VdW12>
5.978

> <Bond>
0.185

> <Angle>
0.935

> <Pdih>
1.028

> <Idih>
0.000

> <Tether>
0.000

$$$$
VeraChem MOL file


 20 19  0  0  0  0  0  0  0  0999 V2000     
   22.2753   20.2434   22.6496 N   0  3  0  0  0  0  0  0  0  0  0  0
   22.2703   21.2435   22.8730 H   0  0  0  0  0  0  0  0  0  0  0  0
   22.1204   19.7365   23.5258 H   0  0  0  0  0  0  0  0  0  0  0  0
   23.2234   20.0132   22.3342 H   0  0  0  0  0  0  0  0  0  0  0  0
   21.2338   19.8934   21.6043 C   0  0  0  0  0  0  0  0  0  0  0  0
   21.3152   18.8261   21.3929 H   0  0  0  0  0  0  0  0  0  0  0  0
   21.4896   20.4373   20.6910 H   0  0  0  0  0  0  0  0  0  0  0  0
   19.7903   20.2506   22.0183 C   0  0  0  0  0  0  0  0  0  0  0  0
   19.7538   21.3273   22.2310 H   0  0  0  0  0  0  0  0  0  0  0  0
   19.1173   20.0901   21.1657 H   0  0  0  0  0  0  0  0  0  0  0  0
   19.2584   19.4764   23.2544 C   0  0  0  0  0  0  0  0  0  0  0  0
   18.4504   20.0716   23.7019 H   0  0  0  0  0  0  0  0  0  0  0  0
   20.0323   19.4054   24.0295 H   0  0  0  0  0  0  0  0  0  0  0  0
   18.6828   18.0693   22.9501 C   0  0  0  0  0  0  0  0  0  0  0  0
   18.2569   17.6634   23.8784 H   0  0  0  0  0  0  0  0  0  0  0  0
   17.8439   18.1564   22.2454 H   0  0  0  0  0  0  0  0  0  0  0  0
   19.7127   17.0581   22.4001 C   0  0  0  0  0  0  0  0  0  0  0  0
   20.6169   17.0311   23.0219 H   0  0  0  0  0  0  0  0  0  0  0  0
   19.2854   16.0471   22.3864 H   0  0  0  0  0  0  0  0  0  0  0  0
   20.0001   17.3006   21.3702 H   0  0  0  0  0  0  0  0  0  0  0  0
  1  2  1  0  0  0  0
  1  3  1  0  0  0  0
  1  4  1  0  0  0  0
  1  5  1  0  0  0  0
  5  6  1  0  0  0  0
  5  7  1  0  0  0  0
  5  8  1  0  0  0  0
  8  9  1  0  0  0  0
  8 10  1  0  0  0  0
  8 11  1  0  0  0  0
 11 12  1  0  0  0  0
 11 13  1  0  0  0  0
 11 14  1  0  0  0  0
 14 15  1  0  0  0  0
 14 16  1  0  0  0  0
 14 17  1  0  0  0  0
 17 18  1  0  0  0  0
 17 19  1  0  0  0  0
 17 20  1  0  0  0  0
M  END
> <VConfSearch Rank>
349

> <Conf_Id>
80

> <Delta U+W>
2.920

> <U+W>
-8.857

> <U>
49.434

> <W>
-58.292

> <W(PB)>
-60.170

> <W(SA)>
1.879

> <Valence>
3.798

> <Coulomb>
45.253

> <VdW>
0.384

> <VdW6>
-5.595

> <VdW12>
5.979

> <Bond>
0.198

> <Angle>
1.368

> <Pdih>
2.231

> <Idih>
0.000

> <Tether>
0.000

$$$$
VeraChem MOL file


 20 19  0  0  0  0  0  0  0  0999 V2000     
   21.5763   18.2383   20.8659 N   0  3  0  0  0  0  0  0  0  0  0  0
   21.7020   18.7246   19.9727 H   0  0  0  0  0  0  0  0  0  0  0  0
   22.2906   17.5039   20.9085 H   0  0  0  0  0  0  0  0  0  0  0  0
   20.6668   17.7690   20.8299 H   0  0  0  0  0  0  0  0  0  0  0  0
   21.6742   19.1879   22.0442 C   0  0  0  0  0  0  0  0  0  0  0  0
   22.6808   19.6147   22.0392 H   0  0  0  0  0  0  0  0  0  0  0  0
   21.5628   18.6023   22.9581 H   0  0  0  0  0  0  0  0  0  0  0  0
   20.6393   20.3328   22.0101 C   0  0  0  0  0  0  0  0  0  0  0  0
   20.8573   21.0441   22.8176 H   0  0  0  0  0  0  0  0  0  0  0  0
   20.7783   20.8895   21.0739 H   0  0  0  0  0  0  0  0  0  0  0  0
   19.1593   19.8739   22.1062 C   0  0  0  0  0  0  0  0  0  0  0  0
   18.9887   18.9837   21.4871 H   0  0  0  0  0  0  0  0  0  0  0  0
   18.5335   20.6615   21.6642 H   0  0  0  0  0  0  0  0  0  0  0  0
   18.6411   19.6247   23.5462 C   0  0  0  0  0  0  0  0  0  0  0  0
   18.7256   20.5484   24.1356 H   0  0  0  0  0  0  0  0  0  0  0  0
   17.5671   19.3982   23.4912 H   0  0  0  0  0  0  0  0  0  0  0  0
   19.3475   18.4721   24.2936 C   0  0  0  0  0  0  0  0  0  0  0  0
   20.3709   18.7465   24.5752 H   0  0  0  0  0  0  0  0  0  0  0  0
   18.8107   18.2327   25.2207 H   0  0  0  0  0  0  0  0  0  0  0  0
   19.3818   17.5615   23.6817 H   0  0  0  0  0  0  0  0  0  0  0  0
  1  2  1  0  0  0  0
  1  3  1  0  0  0  0
  1  4  1  0  0  0  0
  1  5  1  0  0  0  0
  5  6  1  0  0  0  0
  5  7  1  0  0  0  0
  5  8  1  0  0  0  0
  8  9  1  0  0  0  0
  8 10  1  0  0  0  0
  8 11  1  0  0  0  0
 11 12  1  0  0  0  0
 11 13  1  0  0  0  0
 11 14  1  0  0  0  0
 14 15  1  0  0  0  0
 14 16  1  0  0  0  0
 14 17  1  0  0  0  0
 17 18  1  0  0  0  0
 17 19  1  0  0  0  0
 17 20  1  0  0  0  0
M  END
> <VConfSearch Rank>
350

> <Conf_Id>
65

> <Delta U+W>
2.949

> <U+W>
-8.829

> <U>
49.435

> <W>
-58.263

> <W(PB)>
-60.125

> <W(SA)>
1.862

> <Valence>
3.797

> <Coulomb>
45.253

> <VdW>
0.384

> <VdW6>
-5.596

> <VdW12>
5.980

> <Bond>
0.198

> <Angle>
1.369

> <Pdih>
2.230

> <Idih>
0.000

> <Tether>
0.000

$$$$
VeraChem MOL file


 20 19  0  0  0  0  0  0  0  0999 V2000     
   18.4889   20.1311   21.7848 N   0  3  0  0  0  0  0  0  0  0  0  0
   17.4727   20.0450   21.8929 H   0  0  0  0  0  0  0  0  0  0  0  0
   18.8789   20.3340   22.7102 H   0  0  0  0  0  0  0  0  0  0  0  0
   18.6573   20.9529   21.1960 H   0  0  0  0  0  0  0  0  0  0  0  0
   19.1006   18.8778   21.1895 C   0  0  0  0  0  0  0  0  0  0  0  0
   18.6383   18.7311   20.2096 H   0  0  0  0  0  0  0  0  0  0  0  0
   18.8363   18.0248   21.8202 H   0  0  0  0  0  0  0  0  0  0  0  0
   20.6317   18.9483   21.0182 C   0  0  0  0  0  0  0  0  0  0  0  0
   20.9134   18.2291   20.2378 H   0  0  0  0  0  0  0  0  0  0  0  0
   20.9174   19.9354   20.6313 H   0  0  0  0  0  0  0  0  0  0  0  0
   21.4555   18.6129   22.2905 C   0  0  0  0  0  0  0  0  0  0  0  0
   22.5180   18.6475   22.0120 H   0  0  0  0  0  0  0  0  0  0  0  0
   21.2664   17.5745   22.5961 H   0  0  0  0  0  0  0  0  0  0  0  0
   21.2436   19.5682   23.4926 C   0  0  0  0  0  0  0  0  0  0  0  0
   22.2013   19.6858   24.0192 H   0  0  0  0  0  0  0  0  0  0  0  0
   20.9746   20.5736   23.1418 H   0  0  0  0  0  0  0  0  0  0  0  0
   20.2056   19.0413   24.5118 C   0  0  0  0  0  0  0  0  0  0  0  0
   19.2353   18.8285   24.0505 H   0  0  0  0  0  0  0  0  0  0  0  0
   20.5591   18.1118   24.9771 H   0  0  0  0  0  0  0  0  0  0  0  0
   20.0464   19.7725   25.3150 H   0  0  0  0  0  0  0  0  0  0  0  0
  1  2  1  0  0  0  0
  1  3  1  0  0  0  0
  1  4  1  0  0  0  0
  1  5  1  0  0  0  0
  5  6  1  0  0  0  0
  5  7  1  0  0  0  0
  5  8  1  0  0  0  0
  8  9  1  0  0  0  0
  8 10  1  0  0  0  0
  8 11  1  0  0  0  0
 11 12  1  0  0  0  0
 11 13  1  0  0  0  0
 11 14  1  0  0  0  0
 14 15  1  0  0  0  0
 14 16  1  0  0  0  0
 14 17  1  0  0  0  0
 17 18  1  0  0  0  0
 17 19  1  0  0  0  0
 17 20  1  0  0  0  0
M  END
> <VConfSearch Rank>
351

> <Conf_Id>
77

> <Delta U+W>
5.366

> <U+W>
-6.412

> <U>
51.542

> <W>
-57.954

> <W(PB)>
-59.811

> <W(SA)>
1.857

> <Valence>
5.347

> <Coulomb>
45.870

> <VdW>
0.325

> <VdW6>
-6.161

> <VdW12>
6.486

> <Bond>
0.201

> <Angle>
1.484

> <Pdih>
3.662

> <Idih>
0.000

> <Tether>
0.000

$$$$
VeraChem MOL file


 20 19  0  0  0  0  0  0  0  0999 V2000     
   19.1637   20.6982   22.2749 N   0  3  0  0  0  0  0  0  0  0  0  0
   18.3443   20.6366   21.6623 H   0  0  0  0  0  0  0  0  0  0  0  0
   19.0140   20.0462   23.0509 H   0  0  0  0  0  0  0  0  0  0  0  0
   19.1716   21.6453   22.6680 H   0  0  0  0  0  0  0  0  0  0  0  0
   20.4474   20.3863   21.5303 C   0  0  0  0  0  0  0  0  0  0  0  0
   21.2912   20.5302   22.2103 H   0  0  0  0  0  0  0  0  0  0  0  0
   20.5341   21.1182   20.7226 H   0  0  0  0  0  0  0  0  0  0  0  0
   20.4945   18.9665   20.9300 C   0  0  0  0  0  0  0  0  0  0  0  0
   19.5243   18.7218   20.4775 H   0  0  0  0  0  0  0  0  0  0  0  0
   21.2154   18.9782   20.1018 H   0  0  0  0  0  0  0  0  0  0  0  0
   20.9236   17.8460   21.9150 C   0  0  0  0  0  0  0  0  0  0  0  0
   21.9507   18.0256   22.2620 H   0  0  0  0  0  0  0  0  0  0  0  0
   20.9668   16.9072   21.3455 H   0  0  0  0  0  0  0  0  0  0  0  0
   19.9830   17.6284   23.1276 C   0  0  0  0  0  0  0  0  0  0  0  0
   18.9515   17.9018   22.8678 H   0  0  0  0  0  0  0  0  0  0  0  0
   19.9540   16.5543   23.3596 H   0  0  0  0  0  0  0  0  0  0  0  0
   20.4497   18.3742   24.4003 C   0  0  0  0  0  0  0  0  0  0  0  0
   19.7272   18.2379   25.2155 H   0  0  0  0  0  0  0  0  0  0  0  0
   21.4149   17.9813   24.7456 H   0  0  0  0  0  0  0  0  0  0  0  0
   20.5740   19.4497   24.2344 H   0  0  0  0  0  0  0  0  0  0  0  0
  1  2  1  0  0  0  0
  1  3  1  0  0  0  0
  1  4  1  0  0  0  0
  1  5  1  0  0  0  0
  5  6  1  0  0  0  0
  5  7  1  0  0  0  0
  5  8  1  0  0  0  0
  8  9  1  0  0  0  0
  8 10  1  0  0  0  0
  8 11  1  0  0  0  0
 11 12  1  0  0  0  0
 11 13  1  0  0  0  0
 11 14  1  0  0  0  0
 14 15  1  0  0  0  0
 14 16  1  0  0  0  0
 14 17  1  0  0  0  0
 17 18  1  0  0  0  0
 17 19  1  0  0  0  0
 17 20  1  0  0  0  0
M  END
> <VConfSearch Rank>
352

> <Conf_Id>
67

> <Delta U+W>
5.353

> <U+W>
-6.425

> <U>
51.541

> <W>
-57.966

> <W(PB)>
-59.821

> <W(SA)>
1.855

> <Valence>
5.347

> <Coulomb>
45.870

> <VdW>
0.325

> <VdW6>
-6.161

> <VdW12>
6.486

> <Bond>
0.201

> <Angle>
1.485

> <Pdih>
3.662

> <Idih>
0.000

> <Tether>
0.000

$$$$
VeraChem MOL file


 20 19  0  0  0  0  0  0  0  0999 V2000     
   21.9659   18.0321   20.0478 N   0  3  0  0  0  0  0  0  0  0  0  0
   21.2392   17.5079   19.5502 H   0  0  0  0  0  0  0  0  0  0  0  0
   22.5889   18.4260   19.3349 H   0  0  0  0  0  0  0  0  0  0  0  0
   22.5168   17.3515   20.5804 H   0  0  0  0  0  0  0  0  0  0  0  0
   21.3788   19.1078   20.9392 C   0  0  0  0  0  0  0  0  0  0  0  0
   20.8331   19.8114   20.3046 H   0  0  0  0  0  0  0  0  0  0  0  0
   22.2066   19.6431   21.4122 H   0  0  0  0  0  0  0  0  0  0  0  0
   20.4375   18.5493   22.0215 C   0  0  0  0  0  0  0  0  0  0  0  0
   19.6165   17.9991   21.5427 H   0  0  0  0  0  0  0  0  0  0  0  0
   20.9853   17.8314   22.6465 H   0  0  0  0  0  0  0  0  0  0  0  0
   19.8614   19.6766   22.9071 C   0  0  0  0  0  0  0  0  0  0  0  0
   19.3186   20.3958   22.2780 H   0  0  0  0  0  0  0  0  0  0  0  0
   20.6856   20.2283   23.3805 H   0  0  0  0  0  0  0  0  0  0  0  0
   18.9145   19.1275   23.9977 C   0  0  0  0  0  0  0  0  0  0  0  0
   18.0874   18.5766   23.5282 H   0  0  0  0  0  0  0  0  0  0  0  0
   19.4542   18.4092   24.6307 H   0  0  0  0  0  0  0  0  0  0  0  0
   18.3414   20.2572   24.8798 C   0  0  0  0  0  0  0  0  0  0  0  0
   17.7663   20.9742   24.2794 H   0  0  0  0  0  0  0  0  0  0  0  0
   17.6720   19.8479   25.6475 H   0  0  0  0  0  0  0  0  0  0  0  0
   19.1439   20.8053   25.3906 H   0  0  0  0  0  0  0  0  0  0  0  0
  1  2  1  0  0  0  0
  1  3  1  0  0  0  0
  1  4  1  0  0  0  0
  1  5  1  0  0  0  0
  5  6  1  0  0  0  0
  5  7  1  0  0  0  0
  5  8  1  0  0  0  0
  8  9  1  0  0  0  0
  8 10  1  0  0  0  0
  8 11  1  0  0  0  0
 11 12  1  0  0  0  0
 11 13  1  0  0  0  0
 11 14  1  0  0  0  0
 14 15  1  0  0  0  0
 14 16  1  0  0  0  0
 14 17  1  0  0  0  0
 17 18  1  0  0  0  0
 17 19  1  0  0  0  0
 17 20  1  0  0  0  0
M  END
> <VConfSearch Rank>
353

> <Conf_Id>
72

> <Delta U+W>
0.000

> <U+W>
-11.778

> <U>
45.772

> <W>
-57.550

> <W(PB)>
-59.511

> <W(SA)>
1.961

> <Valence>
1.299

> <Coulomb>
44.177

> <VdW>
0.297

> <VdW6>
-3.490

> <VdW12>
3.786

> <Bond>
0.096

> <Angle>
0.381

> <Pdih>
0.822

> <Idih>
0.000

> <Tether>
0.000

$$$$
VeraChem MOL file


 20 19  0  0  0  0  0  0  0  0999 V2000     
   21.1735   21.9269   23.0515 N   0  3  0  0  0  0  0  0  0  0  0  0
   20.6234   21.9892   23.9139 H   0  0  0  0  0  0  0  0  0  0  0  0
   22.1231   21.6492   23.3192 H   0  0  0  0  0  0  0  0  0  0  0  0
   21.2380   22.8769   22.6708 H   0  0  0  0  0  0  0  0  0  0  0  0
   20.5604   20.9621   22.0566 C   0  0  0  0  0  0  0  0  0  0  0  0
   21.1786   20.9694   21.1547 H   0  0  0  0  0  0  0  0  0  0  0  0
   19.5663   21.3341   21.7942 H   0  0  0  0  0  0  0  0  0  0  0  0
   20.4493   19.5250   22.5966 C   0  0  0  0  0  0  0  0  0  0  0  0
   21.4477   19.1612   22.8737 H   0  0  0  0  0  0  0  0  0  0  0  0
   19.8422   19.5323   23.5106 H   0  0  0  0  0  0  0  0  0  0  0  0
   19.8214   18.5758   21.5488 C   0  0  0  0  0  0  0  0  0  0  0  0
   20.3989   18.6404   20.6161 H   0  0  0  0  0  0  0  0  0  0  0  0
   18.8043   18.9136   21.3059 H   0  0  0  0  0  0  0  0  0  0  0  0
   19.7810   17.0959   22.0015 C   0  0  0  0  0  0  0  0  0  0  0  0
   19.4208   16.4809   21.1648 H   0  0  0  0  0  0  0  0  0  0  0  0
   20.7993   16.7467   22.2227 H   0  0  0  0  0  0  0  0  0  0  0  0
   18.8704   16.8522   23.2266 C   0  0  0  0  0  0  0  0  0  0  0  0
   17.8523   17.2186   23.0414 H   0  0  0  0  0  0  0  0  0  0  0  0
   18.8051   15.7793   23.4492 H   0  0  0  0  0  0  0  0  0  0  0  0
   19.2580   17.3513   24.1233 H   0  0  0  0  0  0  0  0  0  0  0  0
  1  2  1  0  0  0  0
  1  3  1  0  0  0  0
  1  4  1  0  0  0  0
  1  5  1  0  0  0  0
  5  6  1  0  0  0  0
  5  7  1  0  0  0  0
  5  8  1  0  0  0  0
  8  9  1  0  0  0  0
  8 10  1  0  0  0  0
  8 11  1  0  0  0  0
 11 12  1  0  0  0  0
 11 13  1  0  0  0  0
 11 14  1  0  0  0  0
 14 15  1  0  0  0  0
 14 16  1  0  0  0  0
 14 17  1  0  0  0  0
 17 18  1  0  0  0  0
 17 19  1  0  0  0  0
 17 20  1  0  0  0  0
M  END
> <VConfSearch Rank>
354

> <Conf_Id>
42

> <Delta U+W>
0.508

> <U+W>
-11.270

> <U>
46.486

> <W>
-57.756

> <W(PB)>
-59.705

> <W(SA)>
1.949

> <Valence>
1.806

> <Coulomb>
44.248

> <VdW>
0.433

> <VdW6>
-4.089

> <VdW12>
4.522

> <Bond>
0.131

> <Angle>
0.628

> <Pdih>
1.047

> <Idih>
0.000

> <Tether>
0.000

$$$$
VeraChem MOL file


 20 19  0  0  0  0  0  0  0  0999 V2000     
   22.2596   17.0444   23.2287 N   0  3  0  0  0  0  0  0  0  0  0  0
   21.7183   16.5390   23.9372 H   0  0  0  0  0  0  0  0  0  0  0  0
   22.1329   16.5472   22.3415 H   0  0  0  0  0  0  0  0  0  0  0  0
   23.2478   16.9478   23.4849 H   0  0  0  0  0  0  0  0  0  0  0  0
   21.8434   18.4981   23.1282 C   0  0  0  0  0  0  0  0  0  0  0  0
   22.4784   18.9801   22.3799 H   0  0  0  0  0  0  0  0  0  0  0  0
   22.0335   18.9710   24.0955 H   0  0  0  0  0  0  0  0  0  0  0  0
   20.3636   18.6789   22.7452 C   0  0  0  0  0  0  0  0  0  0  0  0
   20.1805   18.1856   21.7824 H   0  0  0  0  0  0  0  0  0  0  0  0
   19.7303   18.1799   23.4907 H   0  0  0  0  0  0  0  0  0  0  0  0
   19.9829   20.1757   22.6566 C   0  0  0  0  0  0  0  0  0  0  0  0
   20.5847   20.6652   21.8782 H   0  0  0  0  0  0  0  0  0  0  0  0
   20.2444   20.6680   23.6037 H   0  0  0  0  0  0  0  0  0  0  0  0
   18.4795   20.4153   22.3757 C   0  0  0  0  0  0  0  0  0  0  0  0
   17.8745   19.9476   23.1651 H   0  0  0  0  0  0  0  0  0  0  0  0
   18.2776   21.4942   22.4331 H   0  0  0  0  0  0  0  0  0  0  0  0
   18.0218   19.8960   20.9935 C   0  0  0  0  0  0  0  0  0  0  0  0
   18.0911   18.8031   20.9298 H   0  0  0  0  0  0  0  0  0  0  0  0
   16.9755   20.1709   20.8072 H   0  0  0  0  0  0  0  0  0  0  0  0
   18.6301   20.3274   20.1880 H   0  0  0  0  0  0  0  0  0  0  0  0
  1  2  1  0  0  0  0
  1  3  1  0  0  0  0
  1  4  1  0  0  0  0
  1  5  1  0  0  0  0
  5  6  1  0  0  0  0
  5  7  1  0  0  0  0
  5  8  1  0  0  0  0
  8  9  1  0  0  0  0
  8 10  1  0  0  0  0
  8 11  1  0  0  0  0
 11 12  1  0  0  0  0
 11 13  1  0  0  0  0
 11 14  1  0  0  0  0
 14 15  1  0  0  0  0
 14 16  1  0  0  0  0
 14 17  1  0  0  0  0
 17 18  1  0  0  0  0
 17 19  1  0  0  0  0
 17 20  1  0  0  0  0
M  END
> <VConfSearch Rank>
355

> <Conf_Id>
41

> <Delta U+W>
0.515

> <U+W>
-11.263

> <U>
46.486

> <W>
-57.749

> <W(PB)>
-59.685

> <W(SA)>
1.936

> <Valence>
1.806

> <Coulomb>
44.248

> <VdW>
0.433

> <VdW6>
-4.089

> <VdW12>
4.522

> <Bond>
0.131

> <Angle>
0.628

> <Pdih>
1.047

> <Idih>
0.000

> <Tether>
0.000

$$$$
VeraChem MOL file


 20 19  0  0  0  0  0  0  0  0999 V2000     
   19.4303   17.2931   24.4061 N   0  3  0  0  0  0  0  0  0  0  0  0
   19.6297   16.4768   24.9939 H   0  0  0  0  0  0  0  0  0  0  0  0
   19.6661   18.1227   24.9584 H   0  0  0  0  0  0  0  0  0  0  0  0
   18.4172   17.3092   24.2528 H   0  0  0  0  0  0  0  0  0  0  0  0
   20.1987   17.2466   23.0994 C   0  0  0  0  0  0  0  0  0  0  0  0
   19.9286   16.3175   22.5901 H   0  0  0  0  0  0  0  0  0  0  0  0
   21.2659   17.2077   23.3337 H   0  0  0  0  0  0  0  0  0  0  0  0
   19.9159   18.4399   22.1656 C   0  0  0  0  0  0  0  0  0  0  0  0
   20.4232   18.2505   21.2114 H   0  0  0  0  0  0  0  0  0  0  0  0
   18.8410   18.4868   21.9462 H   0  0  0  0  0  0  0  0  0  0  0  0
   20.3975   19.7892   22.7559 C   0  0  0  0  0  0  0  0  0  0  0  0
   21.4778   19.7426   22.9516 H   0  0  0  0  0  0  0  0  0  0  0  0
   19.9145   19.9562   23.7278 H   0  0  0  0  0  0  0  0  0  0  0  0
   20.0888   21.0046   21.8480 C   0  0  0  0  0  0  0  0  0  0  0  0
   19.0075   21.0636   21.6604 H   0  0  0  0  0  0  0  0  0  0  0  0
   20.3570   21.9240   22.3873 H   0  0  0  0  0  0  0  0  0  0  0  0
   20.8495   20.9784   20.5025 C   0  0  0  0  0  0  0  0  0  0  0  0
   20.5237   20.1435   19.8701 H   0  0  0  0  0  0  0  0  0  0  0  0
   20.6698   21.9050   19.9419 H   0  0  0  0  0  0  0  0  0  0  0  0
   21.9318   20.8880   20.6620 H   0  0  0  0  0  0  0  0  0  0  0  0
  1  2  1  0  0  0  0
  1  3  1  0  0  0  0
  1  4  1  0  0  0  0
  1  5  1  0  0  0  0
  5  6  1  0  0  0  0
  5  7  1  0  0  0  0
  5  8  1  0  0  0  0
  8  9  1  0  0  0  0
  8 10  1  0  0  0  0
  8 11  1  0  0  0  0
 11 12  1  0  0  0  0
 11 13  1  0  0  0  0
 11 14  1  0  0  0  0
 14 15  1  0  0  0  0
 14 16  1  0  0  0  0
 14 17  1  0  0  0  0
 17 18  1  0  0  0  0
 17 19  1  0  0  0  0
 17 20  1  0  0  0  0
M  END
> <VConfSearch Rank>
356

> <Conf_Id>
33

> <Delta U+W>
0.703

> <U+W>
-11.075

> <U>
47.080

> <W>
-58.154

> <W(PB)>
-60.053

> <W(SA)>
1.899

> <Valence>
1.943

> <Coulomb>
44.572

> <VdW>
0.565

> <VdW6>
-4.575

> <VdW12>
5.139

> <Bond>
0.158

> <Angle>
0.700

> <Pdih>
1.085

> <Idih>
0.000

> <Tether>
0.000

$$$$
VeraChem MOL file


 20 19  0  0  0  0  0  0  0  0999 V2000     
   18.3604   17.0393   22.1363 N   0  3  0  0  0  0  0  0  0  0  0  0
   17.8748   16.2046   22.4813 H   0  0  0  0  0  0  0  0  0  0  0  0
   17.7348   17.4900   21.4613 H   0  0  0  0  0  0  0  0  0  0  0  0
   19.1812   16.7135   21.6176 H   0  0  0  0  0  0  0  0  0  0  0  0
   18.7412   17.9761   23.2666 C   0  0  0  0  0  0  0  0  0  0  0  0
   19.3866   17.4288   23.9591 H   0  0  0  0  0  0  0  0  0  0  0  0
   17.8234   18.2438   23.7972 H   0  0  0  0  0  0  0  0  0  0  0  0
   19.4530   19.2612   22.8000 C   0  0  0  0  0  0  0  0  0  0  0  0
   18.8098   19.7997   22.0915 H   0  0  0  0  0  0  0  0  0  0  0  0
   19.5761   19.9154   23.6721 H   0  0  0  0  0  0  0  0  0  0  0  0
   20.8345   18.9804   22.1567 C   0  0  0  0  0  0  0  0  0  0  0  0
   20.7097   18.2963   21.3070 H   0  0  0  0  0  0  0  0  0  0  0  0
   21.4801   18.4617   22.8790 H   0  0  0  0  0  0  0  0  0  0  0  0
   21.5488   20.2565   21.6486 C   0  0  0  0  0  0  0  0  0  0  0  0
   22.4591   19.9593   21.1093 H   0  0  0  0  0  0  0  0  0  0  0  0
   20.9126   20.7719   20.9154 H   0  0  0  0  0  0  0  0  0  0  0  0
   21.9389   21.2365   22.7788 C   0  0  0  0  0  0  0  0  0  0  0  0
   22.5498   20.7368   23.5418 H   0  0  0  0  0  0  0  0  0  0  0  0
   22.5243   22.0732   22.3762 H   0  0  0  0  0  0  0  0  0  0  0  0
   21.0542   21.6606   23.2694 H   0  0  0  0  0  0  0  0  0  0  0  0
  1  2  1  0  0  0  0
  1  3  1  0  0  0  0
  1  4  1  0  0  0  0
  1  5  1  0  0  0  0
  5  6  1  0  0  0  0
  5  7  1  0  0  0  0
  5  8  1  0  0  0  0
  8  9  1  0  0  0  0
  8 10  1  0  0  0  0
  8 11  1  0  0  0  0
 11 12  1  0  0  0  0
 11 13  1  0  0  0  0
 11 14  1  0  0  0  0
 14 15  1  0  0  0  0
 14 16  1  0  0  0  0
 14 17  1  0  0  0  0
 17 18  1  0  0  0  0
 17 19  1  0  0  0  0
 17 20  1  0  0  0  0
M  END
> <VConfSearch Rank>
357

> <Conf_Id>
24

> <Delta U+W>
0.847

> <U+W>
-10.931

> <U>
47.080

> <W>
-58.011

> <W(PB)>
-59.914

> <W(SA)>
1.903

> <Valence>
1.943

> <Coulomb>
44.572

> <VdW>
0.565

> <VdW6>
-4.575

> <VdW12>
5.140

> <Bond>
0.158

> <Angle>
0.700

> <Pdih>
1.085

> <Idih>
0.000

> <Tether>
0.000

$$$$
VeraChem MOL file


 20 19  0  0  0  0  0  0  0  0999 V2000     
   22.4983   20.0457   23.6070 N   0  3  0  0  0  0  0  0  0  0  0  0
   23.4393   19.6952   23.3992 H   0  0  0  0  0  0  0  0  0  0  0  0
   22.4165   20.9627   23.1569 H   0  0  0  0  0  0  0  0  0  0  0  0
   22.4565   20.2020   24.6190 H   0  0  0  0  0  0  0  0  0  0  0  0
   21.4235   19.0862   23.1375 C   0  0  0  0  0  0  0  0  0  0  0  0
   21.5882   18.1255   23.6328 H   0  0  0  0  0  0  0  0  0  0  0  0
   21.5475   18.9439   22.0608 H   0  0  0  0  0  0  0  0  0  0  0  0
   19.9963   19.5839   23.4342 C   0  0  0  0  0  0  0  0  0  0  0  0
   19.8957   19.7632   24.5129 H   0  0  0  0  0  0  0  0  0  0  0  0
   19.8330   20.5526   22.9451 H   0  0  0  0  0  0  0  0  0  0  0  0
   18.9060   18.5763   22.9917 C   0  0  0  0  0  0  0  0  0  0  0  0
   17.9183   18.9871   23.2426 H   0  0  0  0  0  0  0  0  0  0  0  0
   19.0094   17.6562   23.5834 H   0  0  0  0  0  0  0  0  0  0  0  0
   18.9336   18.2067   21.4864 C   0  0  0  0  0  0  0  0  0  0  0  0
   19.8746   17.6972   21.2378 H   0  0  0  0  0  0  0  0  0  0  0  0
   18.1354   17.4771   21.2902 H   0  0  0  0  0  0  0  0  0  0  0  0
   18.7379   19.4220   20.5516 C   0  0  0  0  0  0  0  0  0  0  0  0
   18.6720   19.0957   19.5055 H   0  0  0  0  0  0  0  0  0  0  0  0
   17.8130   19.9614   20.7935 H   0  0  0  0  0  0  0  0  0  0  0  0
   19.5762   20.1258   20.6250 H   0  0  0  0  0  0  0  0  0  0  0  0
  1  2  1  0  0  0  0
  1  3  1  0  0  0  0
  1  4  1  0  0  0  0
  1  5  1  0  0  0  0
  5  6  1  0  0  0  0
  5  7  1  0  0  0  0
  5  8  1  0  0  0  0
  8  9  1  0  0  0  0
  8 10  1  0  0  0  0
  8 11  1  0  0  0  0
 11 12  1  0  0  0  0
 11 13  1  0  0  0  0
 11 14  1  0  0  0  0
 14 15  1  0  0  0  0
 14 16  1  0  0  0  0
 14 17  1  0  0  0  0
 17 18  1  0  0  0  0
 17 19  1  0  0  0  0
 17 20  1  0  0  0  0
M  END
> <VConfSearch Rank>
358

> <Conf_Id>
64

> <Delta U+W>
0.707

> <U+W>
-11.070

> <U>
47.077

> <W>
-58.148

> <W(PB)>
-60.054

> <W(SA)>
1.906

> <Valence>
2.039

> <Coulomb>
44.655

> <VdW>
0.383

> <VdW6>
-4.912

> <VdW12>
5.295

> <Bond>
0.159

> <Angle>
0.856

> <Pdih>
1.024

> <Idih>
0.000

> <Tether>
0.000

$$$$
VeraChem MOL file


 20 19  0  0  0  0  0  0  0  0999 V2000     
   18.2741   18.1015   20.7872 N   0  3  0  0  0  0  0  0  0  0  0  0
   18.5366   17.2429   20.2930 H   0  0  0  0  0  0  0  0  0  0  0  0
   17.6784   17.8260   21.5743 H   0  0  0  0  0  0  0  0  0  0  0  0
   17.6872   18.6457   20.1462 H   0  0  0  0  0  0  0  0  0  0  0  0
   19.4879   18.8860   21.2428 C   0  0  0  0  0  0  0  0  0  0  0  0
   19.1344   19.7977   21.7317 H   0  0  0  0  0  0  0  0  0  0  0  0
   20.0591   19.1709   20.3552 H   0  0  0  0  0  0  0  0  0  0  0  0
   20.3914   18.0963   22.2086 C   0  0  0  0  0  0  0  0  0  0  0  0
   19.8165   17.8019   23.0959 H   0  0  0  0  0  0  0  0  0  0  0  0
   20.7069   17.1633   21.7230 H   0  0  0  0  0  0  0  0  0  0  0  0
   21.6526   18.8894   22.6334 C   0  0  0  0  0  0  0  0  0  0  0  0
   22.2781   19.0657   21.7473 H   0  0  0  0  0  0  0  0  0  0  0  0
   22.2547   18.2660   23.3087 H   0  0  0  0  0  0  0  0  0  0  0  0
   21.3657   20.2494   23.3199 C   0  0  0  0  0  0  0  0  0  0  0  0
   22.3247   20.7300   23.5593 H   0  0  0  0  0  0  0  0  0  0  0  0
   20.8557   20.9270   22.6217 H   0  0  0  0  0  0  0  0  0  0  0  0
   20.5364   20.1197   24.6178 C   0  0  0  0  0  0  0  0  0  0  0  0
   21.0153   19.4304   25.3252 H   0  0  0  0  0  0  0  0  0  0  0  0
   20.4411   21.0951   25.1122 H   0  0  0  0  0  0  0  0  0  0  0  0
   19.5226   19.7536   24.4131 H   0  0  0  0  0  0  0  0  0  0  0  0
  1  2  1  0  0  0  0
  1  3  1  0  0  0  0
  1  4  1  0  0  0  0
  1  5  1  0  0  0  0
  5  6  1  0  0  0  0
  5  7  1  0  0  0  0
  5  8  1  0  0  0  0
  8  9  1  0  0  0  0
  8 10  1  0  0  0  0
  8 11  1  0  0  0  0
 11 12  1  0  0  0  0
 11 13  1  0  0  0  0
 11 14  1  0  0  0  0
 14 15  1  0  0  0  0
 14 16  1  0  0  0  0
 14 17  1  0  0  0  0
 17 18  1  0  0  0  0
 17 19  1  0  0  0  0
 17 20  1  0  0  0  0
M  END
> <VConfSearch Rank>
359

> <Conf_Id>
22

> <Delta U+W>
0.731

> <U+W>
-11.047

> <U>
47.078

> <W>
-58.125

> <W(PB)>
-60.031

> <W(SA)>
1.906

> <Valence>
2.039

> <Coulomb>
44.655

> <VdW>
0.383

> <VdW6>
-4.913

> <VdW12>
5.296

> <Bond>
0.159

> <Angle>
0.856

> <Pdih>
1.024

> <Idih>
0.000

> <Tether>
0.000

$$$$
VeraChem MOL file


 20 19  0  0  0  0  0  0  0  0999 V2000     
   18.9414   20.5357   24.5652 N   0  3  0  0  0  0  0  0  0  0  0  0
   19.7390   20.9644   25.0453 H   0  0  0  0  0  0  0  0  0  0  0  0
   18.3369   21.2990   24.2453 H   0  0  0  0  0  0  0  0  0  0  0  0
   18.4130   20.0150   25.2730 H   0  0  0  0  0  0  0  0  0  0  0  0
   19.3814   19.6442   23.4214 C   0  0  0  0  0  0  0  0  0  0  0  0
   18.4873   19.2011   22.9745 H   0  0  0  0  0  0  0  0  0  0  0  0
   19.9935   18.8431   23.8420 H   0  0  0  0  0  0  0  0  0  0  0  0
   20.1828   20.3956   22.3435 C   0  0  0  0  0  0  0  0  0  0  0  0
   19.6023   21.2685   22.0164 H   0  0  0  0  0  0  0  0  0  0  0  0
   21.1096   20.7869   22.7835 H   0  0  0  0  0  0  0  0  0  0  0  0
   20.5202   19.5366   21.0985 C   0  0  0  0  0  0  0  0  0  0  0  0
   21.0068   20.1951   20.3656 H   0  0  0  0  0  0  0  0  0  0  0  0
   19.5961   19.1883   20.6166 H   0  0  0  0  0  0  0  0  0  0  0  0
   21.4673   18.3386   21.3687 C   0  0  0  0  0  0  0  0  0  0  0  0
   22.0297   18.1292   20.4479 H   0  0  0  0  0  0  0  0  0  0  0  0
   22.2174   18.6085   22.1252 H   0  0  0  0  0  0  0  0  0  0  0  0
   20.7340   17.0400   21.7798 C   0  0  0  0  0  0  0  0  0  0  0  0
   20.2205   17.1391   22.7417 H   0  0  0  0  0  0  0  0  0  0  0  0
   19.9911   16.7515   21.0250 H   0  0  0  0  0  0  0  0  0  0  0  0
   21.4486   16.2122   21.8747 H   0  0  0  0  0  0  0  0  0  0  0  0
  1  2  1  0  0  0  0
  1  3  1  0  0  0  0
  1  4  1  0  0  0  0
  1  5  1  0  0  0  0
  5  6  1  0  0  0  0
  5  7  1  0  0  0  0
  5  8  1  0  0  0  0
  8  9  1  0  0  0  0
  8 10  1  0  0  0  0
  8 11  1  0  0  0  0
 11 12  1  0  0  0  0
 11 13  1  0  0  0  0
 11 14  1  0  0  0  0
 14 15  1  0  0  0  0
 14 16  1  0  0  0  0
 14 17  1  0  0  0  0
 17 18  1  0  0  0  0
 17 19  1  0  0  0  0
 17 20  1  0  0  0  0
M  END
> <VConfSearch Rank>
360

> <Conf_Id>
61

> <Delta U+W>
2.669

> <U+W>
-9.108

> <U>
48.916

> <W>
-58.025

> <W(PB)>
-59.935

> <W(SA)>
1.911

> <Valence>
3.785

> <Coulomb>
44.716

> <VdW>
0.415

> <VdW6>
-4.836

> <VdW12>
5.251

> <Bond>
0.175

> <Angle>
1.195

> <Pdih>
2.415

> <Idih>
0.000

> <Tether>
0.000

$$$$
VeraChem MOL file


 20 19  0  0  0  0  0  0  0  0999 V2000     
   20.4334   17.1950   21.1041 N   0  3  0  0  0  0  0  0  0  0  0  0
   20.3815   16.1713   21.0717 H   0  0  0  0  0  0  0  0  0  0  0  0
   20.8362   17.4998   20.2123 H   0  0  0  0  0  0  0  0  0  0  0  0
   21.1039   17.4389   21.8375 H   0  0  0  0  0  0  0  0  0  0  0  0
   19.0728   17.8188   21.3492 C   0  0  0  0  0  0  0  0  0  0  0  0
   18.6670   17.4156   22.2809 H   0  0  0  0  0  0  0  0  0  0  0  0
   18.4233   17.4969   20.5306 H   0  0  0  0  0  0  0  0  0  0  0  0
   19.0806   19.3610   21.4052 C   0  0  0  0  0  0  0  0  0  0  0  0
   19.7224   19.7634   20.6103 H   0  0  0  0  0  0  0  0  0  0  0  0
   18.0644   19.7083   21.1758 H   0  0  0  0  0  0  0  0  0  0  0  0
   19.4857   19.9542   22.7792 C   0  0  0  0  0  0  0  0  0  0  0  0
   18.7979   19.5872   23.5536 H   0  0  0  0  0  0  0  0  0  0  0  0
   19.3440   21.0430   22.7364 H   0  0  0  0  0  0  0  0  0  0  0  0
   20.9436   19.6569   23.2015 C   0  0  0  0  0  0  0  0  0  0  0  0
   21.0673   18.5843   23.3969 H   0  0  0  0  0  0  0  0  0  0  0  0
   21.6307   19.9229   22.3860 H   0  0  0  0  0  0  0  0  0  0  0  0
   21.3369   20.4366   24.4745 C   0  0  0  0  0  0  0  0  0  0  0  0
   22.3701   20.2073   24.7661 H   0  0  0  0  0  0  0  0  0  0  0  0
   21.2663   21.5201   24.3125 H   0  0  0  0  0  0  0  0  0  0  0  0
   20.6832   20.1736   25.3163 H   0  0  0  0  0  0  0  0  0  0  0  0
  1  2  1  0  0  0  0
  1  3  1  0  0  0  0
  1  4  1  0  0  0  0
  1  5  1  0  0  0  0
  5  6  1  0  0  0  0
  5  7  1  0  0  0  0
  5  8  1  0  0  0  0
  8  9  1  0  0  0  0
  8 10  1  0  0  0  0
  8 11  1  0  0  0  0
 11 12  1  0  0  0  0
 11 13  1  0  0  0  0
 11 14  1  0  0  0  0
 14 15  1  0  0  0  0
 14 16  1  0  0  0  0
 14 17  1  0  0  0  0
 17 18  1  0  0  0  0
 17 19  1  0  0  0  0
 17 20  1  0  0  0  0
M  END
> <VConfSearch Rank>
361

> <Conf_Id>
69

> <Delta U+W>
2.811

> <U+W>
-8.967

> <U>
49.216

> <W>
-58.183

> <W(PB)>
-60.064

> <W(SA)>
1.881

> <Valence>
2.929

> <Coulomb>
46.006

> <VdW>
0.281

> <VdW6>
-4.909

> <VdW12>
5.190

> <Bond>
0.156

> <Angle>
0.974

> <Pdih>
1.799

> <Idih>
0.000

> <Tether>
0.000

$$$$
VeraChem MOL file


 20 19  0  0  0  0  0  0  0  0999 V2000     
   22.3319   18.7667   22.2431 N   0  3  0  0  0  0  0  0  0  0  0  0
   21.7043   18.0883   22.6825 H   0  0  0  0  0  0  0  0  0  0  0  0
   22.5212   18.4325   21.2930 H   0  0  0  0  0  0  0  0  0  0  0  0
   23.2207   18.7293   22.7534 H   0  0  0  0  0  0  0  0  0  0  0  0
   21.7439   20.1648   22.2409 C   0  0  0  0  0  0  0  0  0  0  0  0
   22.4814   20.8191   21.7681 H   0  0  0  0  0  0  0  0  0  0  0  0
   21.6173   20.4915   23.2766 H   0  0  0  0  0  0  0  0  0  0  0  0
   20.4048   20.2908   21.4843 C   0  0  0  0  0  0  0  0  0  0  0  0
   20.2834   21.3429   21.1942 H   0  0  0  0  0  0  0  0  0  0  0  0
   20.4480   19.7231   20.5454 H   0  0  0  0  0  0  0  0  0  0  0  0
   19.1576   19.8790   22.3081 C   0  0  0  0  0  0  0  0  0  0  0  0
   18.2631   20.1180   21.7163 H   0  0  0  0  0  0  0  0  0  0  0  0
   19.0975   20.4966   23.2150 H   0  0  0  0  0  0  0  0  0  0  0  0
   19.1123   18.3831   22.6990 C   0  0  0  0  0  0  0  0  0  0  0  0
   19.2797   17.7592   21.8098 H   0  0  0  0  0  0  0  0  0  0  0  0
   19.9137   18.1567   23.4133 H   0  0  0  0  0  0  0  0  0  0  0  0
   17.7605   18.0041   23.3408 C   0  0  0  0  0  0  0  0  0  0  0  0
   16.9295   18.1773   22.6447 H   0  0  0  0  0  0  0  0  0  0  0  0
   17.7482   16.9427   23.6210 H   0  0  0  0  0  0  0  0  0  0  0  0
   17.5750   18.5939   24.2480 H   0  0  0  0  0  0  0  0  0  0  0  0
  1  2  1  0  0  0  0
  1  3  1  0  0  0  0
  1  4  1  0  0  0  0
  1  5  1  0  0  0  0
  5  6  1  0  0  0  0
  5  7  1  0  0  0  0
  5  8  1  0  0  0  0
  8  9  1  0  0  0  0
  8 10  1  0  0  0  0
  8 11  1  0  0  0  0
 11 12  1  0  0  0  0
 11 13  1  0  0  0  0
 11 14  1  0  0  0  0
 14 15  1  0  0  0  0
 14 16  1  0  0  0  0
 14 17  1  0  0  0  0
 17 18  1  0  0  0  0
 17 19  1  0  0  0  0
 17 20  1  0  0  0  0
M  END
> <VConfSearch Rank>
362

> <Conf_Id>
26

> <Delta U+W>
2.809

> <U+W>
-8.969

> <U>
49.216

> <W>
-58.185

> <W(PB)>
-60.088

> <W(SA)>
1.903

> <Valence>
2.929

> <Coulomb>
46.006

> <VdW>
0.281

> <VdW6>
-4.909

> <VdW12>
5.190

> <Bond>
0.156

> <Angle>
0.974

> <Pdih>
1.799

> <Idih>
0.000

> <Tether>
0.000

$$$$
VeraChem MOL file


 20 19  0  0  0  0  0  0  0  0999 V2000     
   19.9287   16.7864   22.8034 N   0  3  0  0  0  0  0  0  0  0  0  0
   20.8718   17.0544   23.0998 H   0  0  0  0  0  0  0  0  0  0  0  0
   19.4261   16.4731   23.6396 H   0  0  0  0  0  0  0  0  0  0  0  0
   20.0267   15.9702   22.1907 H   0  0  0  0  0  0  0  0  0  0  0  0
   19.2126   17.9291   22.1103 C   0  0  0  0  0  0  0  0  0  0  0  0
   18.2309   17.5648   21.7956 H   0  0  0  0  0  0  0  0  0  0  0  0
   19.7800   18.1919   21.2137 H   0  0  0  0  0  0  0  0  0  0  0  0
   19.0346   19.1779   22.9975 C   0  0  0  0  0  0  0  0  0  0  0  0
   18.4437   19.9214   22.4474 H   0  0  0  0  0  0  0  0  0  0  0  0
   18.4350   18.9108   23.8777 H   0  0  0  0  0  0  0  0  0  0  0  0
   20.3699   19.8155   23.4639 C   0  0  0  0  0  0  0  0  0  0  0  0
   20.8821   19.1263   24.1485 H   0  0  0  0  0  0  0  0  0  0  0  0
   20.1449   20.7117   24.0584 H   0  0  0  0  0  0  0  0  0  0  0  0
   21.3415   20.2004   22.3190 C   0  0  0  0  0  0  0  0  0  0  0  0
   22.2562   20.6194   22.7613 H   0  0  0  0  0  0  0  0  0  0  0  0
   21.6563   19.3031   21.7693 H   0  0  0  0  0  0  0  0  0  0  0  0
   20.7484   21.2318   21.3324 C   0  0  0  0  0  0  0  0  0  0  0  0
   20.4103   22.1333   21.8596 H   0  0  0  0  0  0  0  0  0  0  0  0
   21.5027   21.5372   20.5957 H   0  0  0  0  0  0  0  0  0  0  0  0
   19.8966   20.8167   20.7796 H   0  0  0  0  0  0  0  0  0  0  0  0
  1  2  1  0  0  0  0
  1  3  1  0  0  0  0
  1  4  1  0  0  0  0
  1  5  1  0  0  0  0
  5  6  1  0  0  0  0
  5  7  1  0  0  0  0
  5  8  1  0  0  0  0
  8  9  1  0  0  0  0
  8 10  1  0  0  0  0
  8 11  1  0  0  0  0
 11 12  1  0  0  0  0
 11 13  1  0  0  0  0
 11 14  1  0  0  0  0
 14 15  1  0  0  0  0
 14 16  1  0  0  0  0
 14 17  1  0  0  0  0
 17 18  1  0  0  0  0
 17 19  1  0  0  0  0
 17 20  1  0  0  0  0
M  END
> <VConfSearch Rank>
363

> <Conf_Id>
2

> <Delta U+W>
0.994

> <U+W>
-10.784

> <U>
47.562

> <W>
-58.346

> <W(PB)>
-60.221

> <W(SA)>
1.875

> <Valence>
2.149

> <Coulomb>
45.034

> <VdW>
0.378

> <VdW6>
-5.599

> <VdW12>
5.977

> <Bond>
0.185

> <Angle>
0.935

> <Pdih>
1.028

> <Idih>
0.000

> <Tether>
0.000

$$$$
VeraChem MOL file


 20 19  0  0  0  0  0  0  0  0999 V2000     
   21.7877   18.0098   21.0159 N   0  3  0  0  0  0  0  0  0  0  0  0
   22.7748   18.2430   21.1613 H   0  0  0  0  0  0  0  0  0  0  0  0
   21.5286   17.3283   21.7352 H   0  0  0  0  0  0  0  0  0  0  0  0
   21.7242   17.5311   20.1114 H   0  0  0  0  0  0  0  0  0  0  0  0
   20.9043   19.2411   21.0654 C   0  0  0  0  0  0  0  0  0  0  0  0
   19.8748   18.9289   20.8711 H   0  0  0  0  0  0  0  0  0  0  0  0
   21.2152   19.9068   20.2556 H   0  0  0  0  0  0  0  0  0  0  0  0
   20.9731   19.9996   22.4064 C   0  0  0  0  0  0  0  0  0  0  0  0
   22.0040   20.3379   22.5752 H   0  0  0  0  0  0  0  0  0  0  0  0
   20.3679   20.9118   22.3283 H   0  0  0  0  0  0  0  0  0  0  0  0
   20.5030   19.1658   23.6273 C   0  0  0  0  0  0  0  0  0  0  0  0
   20.5552   19.7952   24.5264 H   0  0  0  0  0  0  0  0  0  0  0  0
   21.2100   18.3432   23.7996 H   0  0  0  0  0  0  0  0  0  0  0  0
   19.0728   18.5808   23.5034 C   0  0  0  0  0  0  0  0  0  0  0  0
   19.0230   17.8718   22.6659 H   0  0  0  0  0  0  0  0  0  0  0  0
   18.8539   17.9953   24.4074 H   0  0  0  0  0  0  0  0  0  0  0  0
   17.9809   19.6615   23.3340 C   0  0  0  0  0  0  0  0  0  0  0  0
   18.0909   20.1998   22.3844 H   0  0  0  0  0  0  0  0  0  0  0  0
   16.9830   19.2043   23.3405 H   0  0  0  0  0  0  0  0  0  0  0  0
   18.0199   20.3935   24.1511 H   0  0  0  0  0  0  0  0  0  0  0  0
  1  2  1  0  0  0  0
  1  3  1  0  0  0  0
  1  4  1  0  0  0  0
  1  5  1  0  0  0  0
  5  6  1  0  0  0  0
  5  7  1  0  0  0  0
  5  8  1  0  0  0  0
  8  9  1  0  0  0  0
  8 10  1  0  0  0  0
  8 11  1  0  0  0  0
 11 12  1  0  0  0  0
 11 13  1  0  0  0  0
 11 14  1  0  0  0  0
 14 15  1  0  0  0  0
 14 16  1  0  0  0  0
 14 17  1  0  0  0  0
 17 18  1  0  0  0  0
 17 19  1  0  0  0  0
 17 20  1  0  0  0  0
M  END
> <VConfSearch Rank>
364

> <Conf_Id>
1

> <Delta U+W>
1.032

> <U+W>
-10.746

> <U>
47.562

> <W>
-58.308

> <W(PB)>
-60.184

> <W(SA)>
1.877

> <Valence>
2.149

> <Coulomb>
45.035

> <VdW>
0.378

> <VdW6>
-5.599

> <VdW12>
5.978

> <Bond>
0.185

> <Angle>
0.935

> <Pdih>
1.028

> <Idih>
0.000

> <Tether>
0.000

$$$$
VeraChem MOL file


 20 19  0  0  0  0  0  0  0  0999 V2000     
   19.3553   19.5274   24.6093 N   0  3  0  0  0  0  0  0  0  0  0  0
   18.4503   19.1150   24.8563 H   0  0  0  0  0  0  0  0  0  0  0  0
   20.0583   18.7876   24.6938 H   0  0  0  0  0  0  0  0  0  0  0  0
   19.5697   20.2274   25.3271 H   0  0  0  0  0  0  0  0  0  0  0  0
   19.3389   20.1331   23.2191 C   0  0  0  0  0  0  0  0  0  0  0  0
   20.3178   20.5785   23.0350 H   0  0  0  0  0  0  0  0  0  0  0  0
   18.5985   20.9377   23.2203 H   0  0  0  0  0  0  0  0  0  0  0  0
   18.9888   19.1251   22.1038 C   0  0  0  0  0  0  0  0  0  0  0  0
   18.0048   18.6941   22.3312 H   0  0  0  0  0  0  0  0  0  0  0  0
   18.8691   19.6617   21.1533 H   0  0  0  0  0  0  0  0  0  0  0  0
   20.0128   17.9720   21.9252 C   0  0  0  0  0  0  0  0  0  0  0  0
   19.4924   17.1312   21.4459 H   0  0  0  0  0  0  0  0  0  0  0  0
   20.3433   17.5928   22.9008 H   0  0  0  0  0  0  0  0  0  0  0  0
   21.2429   18.3164   21.0464 C   0  0  0  0  0  0  0  0  0  0  0  0
   21.8410   17.4032   20.9182 H   0  0  0  0  0  0  0  0  0  0  0  0
   20.9102   18.6038   20.0392 H   0  0  0  0  0  0  0  0  0  0  0  0
   22.1547   19.4228   21.6213 C   0  0  0  0  0  0  0  0  0  0  0  0
   22.4132   19.2225   22.6691 H   0  0  0  0  0  0  0  0  0  0  0  0
   23.0906   19.4810   21.0507 H   0  0  0  0  0  0  0  0  0  0  0  0
   21.6766   20.4074   21.5580 H   0  0  0  0  0  0  0  0  0  0  0  0
  1  2  1  0  0  0  0
  1  3  1  0  0  0  0
  1  4  1  0  0  0  0
  1  5  1  0  0  0  0
  5  6  1  0  0  0  0
  5  7  1  0  0  0  0
  5  8  1  0  0  0  0
  8  9  1  0  0  0  0
  8 10  1  0  0  0  0
  8 11  1  0  0  0  0
 11 12  1  0  0  0  0
 11 13  1  0  0  0  0
 11 14  1  0  0  0  0
 14 15  1  0  0  0  0
 14 16  1  0  0  0  0
 14 17  1  0  0  0  0
 17 18  1  0  0  0  0
 17 19  1  0  0  0  0
 17 20  1  0  0  0  0
M  END
> <VConfSearch Rank>
365

> <Conf_Id>
80

> <Delta U+W>
2.920

> <U+W>
-8.857

> <U>
49.434

> <W>
-58.292

> <W(PB)>
-60.170

> <W(SA)>
1.879

> <Valence>
3.798

> <Coulomb>
45.253

> <VdW>
0.384

> <VdW6>
-5.595

> <VdW12>
5.979

> <Bond>
0.198

> <Angle>
1.368

> <Pdih>
2.231

> <Idih>
0.000

> <Tether>
0.000

$$$$
VeraChem MOL file


 20 19  0  0  0  0  0  0  0  0999 V2000     
   22.3294   20.0909   22.1475 N   0  3  0  0  0  0  0  0  0  0  0  0
   23.0954   19.7820   22.7541 H   0  0  0  0  0  0  0  0  0  0  0  0
   22.7553   20.5946   21.3626 H   0  0  0  0  0  0  0  0  0  0  0  0
   21.7796   20.7732   22.6776 H   0  0  0  0  0  0  0  0  0  0  0  0
   21.4794   18.9273   21.6749 C   0  0  0  0  0  0  0  0  0  0  0  0
   22.1229   18.2689   21.0851 H   0  0  0  0  0  0  0  0  0  0  0  0
   20.7070   19.3222   21.0130 H   0  0  0  0  0  0  0  0  0  0  0  0
   20.8405   18.1154   22.8218 C   0  0  0  0  0  0  0  0  0  0  0  0
   20.3540   17.2223   22.4079 H   0  0  0  0  0  0  0  0  0  0  0  0
   21.6479   17.7453   23.4677 H   0  0  0  0  0  0  0  0  0  0  0  0
   19.8253   18.9059   23.6905 C   0  0  0  0  0  0  0  0  0  0  0  0
   20.1978   19.9173   23.8978 H   0  0  0  0  0  0  0  0  0  0  0  0
   19.7632   18.4109   24.6696 H   0  0  0  0  0  0  0  0  0  0  0  0
   18.3867   18.9786   23.1167 C   0  0  0  0  0  0  0  0  0  0  0  0
   17.9820   17.9634   23.0009 H   0  0  0  0  0  0  0  0  0  0  0  0
   17.7455   19.4771   23.8572 H   0  0  0  0  0  0  0  0  0  0  0  0
   18.2666   19.7355   21.7755 C   0  0  0  0  0  0  0  0  0  0  0  0
   18.7006   19.1582   20.9507 H   0  0  0  0  0  0  0  0  0  0  0  0
   17.2112   19.9086   21.5281 H   0  0  0  0  0  0  0  0  0  0  0  0
   18.7642   20.7127   21.8228 H   0  0  0  0  0  0  0  0  0  0  0  0
  1  2  1  0  0  0  0
  1  3  1  0  0  0  0
  1  4  1  0  0  0  0
  1  5  1  0  0  0  0
  5  6  1  0  0  0  0
  5  7  1  0  0  0  0
  5  8  1  0  0  0  0
  8  9  1  0  0  0  0
  8 10  1  0  0  0  0
  8 11  1  0  0  0  0
 11 12  1  0  0  0  0
 11 13  1  0  0  0  0
 11 14  1  0  0  0  0
 14 15  1  0  0  0  0
 14 16  1  0  0  0  0
 14 17  1  0  0  0  0
 17 18  1  0  0  0  0
 17 19  1  0  0  0  0
 17 20  1  0  0  0  0
M  END
> <VConfSearch Rank>
366

> <Conf_Id>
65

> <Delta U+W>
2.949

> <U+W>
-8.829

> <U>
49.435

> <W>
-58.263

> <W(PB)>
-60.125

> <W(SA)>
1.862

> <Valence>
3.797

> <Coulomb>
45.253

> <VdW>
0.384

> <VdW6>
-5.596

> <VdW12>
5.980

> <Bond>
0.198

> <Angle>
1.369

> <Pdih>
2.230

> <Idih>
0.000

> <Tether>
0.000

$$$$
VeraChem MOL file


 20 19  0  0  0  0  0  0  0  0999 V2000     
   21.9128   19.6052   23.1699 N   0  3  0  0  0  0  0  0  0  0  0  0
   22.8761   19.6444   22.8204 H   0  0  0  0  0  0  0  0  0  0  0  0
   21.3736   20.3121   22.6607 H   0  0  0  0  0  0  0  0  0  0  0  0
   21.9406   19.8926   24.1532 H   0  0  0  0  0  0  0  0  0  0  0  0
   21.3090   18.2240   23.0044 C   0  0  0  0  0  0  0  0  0  0  0  0
   21.9347   17.5316   23.5741 H   0  0  0  0  0  0  0  0  0  0  0  0
   21.3638   17.9413   21.9498 H   0  0  0  0  0  0  0  0  0  0  0  0
   19.8534   18.1128   23.5017 C   0  0  0  0  0  0  0  0  0  0  0  0
   19.6589   17.0565   23.7305 H   0  0  0  0  0  0  0  0  0  0  0  0
   19.7437   18.6491   24.4537 H   0  0  0  0  0  0  0  0  0  0  0  0
   18.7720   18.5855   22.4932 C   0  0  0  0  0  0  0  0  0  0  0  0
   17.7913   18.3999   22.9528 H   0  0  0  0  0  0  0  0  0  0  0  0
   18.7980   17.9551   21.5936 H   0  0  0  0  0  0  0  0  0  0  0  0
   18.8400   20.0822   22.0961 C   0  0  0  0  0  0  0  0  0  0  0  0
   17.8149   20.4558   21.9628 H   0  0  0  0  0  0  0  0  0  0  0  0
   19.2670   20.6779   22.9141 H   0  0  0  0  0  0  0  0  0  0  0  0
   19.6072   20.3260   20.7748 C   0  0  0  0  0  0  0  0  0  0  0  0
   20.6229   19.9170   20.7978 H   0  0  0  0  0  0  0  0  0  0  0  0
   19.0830   19.8566   19.9320 H   0  0  0  0  0  0  0  0  0  0  0  0
   19.6787   21.4005   20.5616 H   0  0  0  0  0  0  0  0  0  0  0  0
  1  2  1  0  0  0  0
  1  3  1  0  0  0  0
  1  4  1  0  0  0  0
  1  5  1  0  0  0  0
  5  6  1  0  0  0  0
  5  7  1  0  0  0  0
  5  8  1  0  0  0  0
  8  9  1  0  0  0  0
  8 10  1  0  0  0  0
  8 11  1  0  0  0  0
 11 12  1  0  0  0  0
 11 13  1  0  0  0  0
 11 14  1  0  0  0  0
 14 15  1  0  0  0  0
 14 16  1  0  0  0  0
 14 17  1  0  0  0  0
 17 18  1  0  0  0  0
 17 19  1  0  0  0  0
 17 20  1  0  0  0  0
M  END
> <VConfSearch Rank>
367

> <Conf_Id>
77

> <Delta U+W>
5.366

> <U+W>
-6.412

> <U>
51.542

> <W>
-57.954

> <W(PB)>
-59.811

> <W(SA)>
1.857

> <Valence>
5.347

> <Coulomb>
45.870

> <VdW>
0.325

> <VdW6>
-6.161

> <VdW12>
6.486

> <Bond>
0.201

> <Angle>
1.484

> <Pdih>
3.662

> <Idih>
0.000

> <Tether>
0.000

$$$$
VeraChem MOL file


 20 19  0  0  0  0  0  0  0  0999 V2000     
   20.7369   20.1425   23.9967 N   0  3  0  0  0  0  0  0  0  0  0  0
   21.6885   20.5209   23.9539 H   0  0  0  0  0  0  0  0  0  0  0  0
   20.2188   20.5297   23.2020 H   0  0  0  0  0  0  0  0  0  0  0  0
   20.3073   20.5119   24.8515 H   0  0  0  0  0  0  0  0  0  0  0  0
   20.7330   18.6263   23.9736 C   0  0  0  0  0  0  0  0  0  0  0  0
   19.7035   18.2764   24.0873 H   0  0  0  0  0  0  0  0  0  0  0  0
   21.3029   18.2921   24.8448 H   0  0  0  0  0  0  0  0  0  0  0  0
   21.3558   18.0174   22.7009 C   0  0  0  0  0  0  0  0  0  0  0  0
   22.2674   18.5678   22.4330 H   0  0  0  0  0  0  0  0  0  0  0  0
   21.6837   16.9982   22.9448 H   0  0  0  0  0  0  0  0  0  0  0  0
   20.4050   17.9283   21.4769 C   0  0  0  0  0  0  0  0  0  0  0  0
   19.5598   17.2649   21.7068 H   0  0  0  0  0  0  0  0  0  0  0  0
   20.9572   17.4299   20.6681 H   0  0  0  0  0  0  0  0  0  0  0  0
   19.8848   19.2850   20.9371 C   0  0  0  0  0  0  0  0  0  0  0  0
   20.6144   20.0821   21.1335 H   0  0  0  0  0  0  0  0  0  0  0  0
   19.8068   19.2194   19.8427 H   0  0  0  0  0  0  0  0  0  0  0  0
   18.4896   19.6635   21.4883 C   0  0  0  0  0  0  0  0  0  0  0  0
   18.1856   20.6538   21.1249 H   0  0  0  0  0  0  0  0  0  0  0  0
   17.7332   18.9422   21.1522 H   0  0  0  0  0  0  0  0  0  0  0  0
   18.4617   19.6815   22.5831 H   0  0  0  0  0  0  0  0  0  0  0  0
  1  2  1  0  0  0  0
  1  3  1  0  0  0  0
  1  4  1  0  0  0  0
  1  5  1  0  0  0  0
  5  6  1  0  0  0  0
  5  7  1  0  0  0  0
  5  8  1  0  0  0  0
  8  9  1  0  0  0  0
  8 10  1  0  0  0  0
  8 11  1  0  0  0  0
 11 12  1  0  0  0  0
 11 13  1  0  0  0  0
 11 14  1  0  0  0  0
 14 15  1  0  0  0  0
 14 16  1  0  0  0  0
 14 17  1  0  0  0  0
 17 18  1  0  0  0  0
 17 19  1  0  0  0  0
 17 20  1  0  0  0  0
M  END
> <VConfSearch Rank>
368

> <Conf_Id>
67

> <Delta U+W>
5.353

> <U+W>
-6.425

> <U>
51.541

> <W>
-57.966

> <W(PB)>
-59.821

> <W(SA)>
1.855

> <Valence>
5.347

> <Coulomb>
45.870

> <VdW>
0.325

> <VdW6>
-6.161

> <VdW12>
6.486

> <Bond>
0.201

> <Angle>
1.485

> <Pdih>
3.662

> <Idih>
0.000

> <Tether>
0.000

$$$$
VeraChem MOL file


 20 19  0  0  0  0  0  0  0  0999 V2000     
   18.6246   21.6060   23.8318 N   0  3  0  0  0  0  0  0  0  0  0  0
   17.9996   21.8358   23.0527 H   0  0  0  0  0  0  0  0  0  0  0  0
   18.1011   21.7849   24.6953 H   0  0  0  0  0  0  0  0  0  0  0  0
   19.3965   22.2798   23.8076 H   0  0  0  0  0  0  0  0  0  0  0  0
   19.1187   20.1753   23.7590 C   0  0  0  0  0  0  0  0  0  0  0  0
   18.2497   19.5146   23.8203 H   0  0  0  0  0  0  0  0  0  0  0  0
   19.7515   19.9919   24.6316 H   0  0  0  0  0  0  0  0  0  0  0  0
   19.9093   19.8731   22.4734 C   0  0  0  0  0  0  0  0  0  0  0  0
   19.2754   20.0738   21.5994 H   0  0  0  0  0  0  0  0  0  0  0  0
   20.7720   20.5496   22.4079 H   0  0  0  0  0  0  0  0  0  0  0  0
   20.3942   18.4067   22.4387 C   0  0  0  0  0  0  0  0  0  0  0  0
   19.5291   17.7327   22.5096 H   0  0  0  0  0  0  0  0  0  0  0  0
   21.0240   18.2079   23.3171 H   0  0  0  0  0  0  0  0  0  0  0  0
   21.1895   18.0916   21.1518 C   0  0  0  0  0  0  0  0  0  0  0  0
   20.5624   18.2872   20.2706 H   0  0  0  0  0  0  0  0  0  0  0  0
   22.0572   18.7622   21.0780 H   0  0  0  0  0  0  0  0  0  0  0  0
   21.6718   16.6255   21.1215 C   0  0  0  0  0  0  0  0  0  0  0  0
   20.8235   15.9297   21.1593 H   0  0  0  0  0  0  0  0  0  0  0  0
   22.2339   16.4213   20.2010 H   0  0  0  0  0  0  0  0  0  0  0  0
   22.3300   16.4085   21.9729 H   0  0  0  0  0  0  0  0  0  0  0  0
  1  2  1  0  0  0  0
  1  3  1  0  0  0  0
  1  4  1  0  0  0  0
  1  5  1  0  0  0  0
  5  6  1  0  0  0  0
  5  7  1  0  0  0  0
  5  8  1  0  0  0  0
  8  9  1  0  0  0  0
  8 10  1  0  0  0  0
  8 11  1  0  0  0  0
 11 12  1  0  0  0  0
 11 13  1  0  0  0  0
 11 14  1  0  0  0  0
 14 15  1  0  0  0  0
 14 16  1  0  0  0  0
 14 17  1  0  0  0  0
 17 18  1  0  0  0  0
 17 19  1  0  0  0  0
 17 20  1  0  0  0  0
M  END
> <VConfSearch Rank>
369

> <Conf_Id>
72

> <Delta U+W>
0.000

> <U+W>
-11.778

> <U>
45.772

> <W>
-57.550

> <W(PB)>
-59.511

> <W(SA)>
1.961

> <Valence>
1.299

> <Coulomb>
44.177

> <VdW>
0.297

> <VdW6>
-3.490

> <VdW12>
3.786

> <Bond>
0.096

> <Angle>
0.381

> <Pdih>
0.822

> <Idih>
0.000

> <Tether>
0.000

$$$$
VeraChem MOL file


 20 19  0  0  0  0  0  0  0  0999 V2000     
   19.8879   17.9614   25.2203 N   0  3  0  0  0  0  0  0  0  0  0  0
   20.6836   17.3431   25.0335 H   0  0  0  0  0  0  0  0  0  0  0  0
   20.2459   18.7607   25.7526 H   0  0  0  0  0  0  0  0  0  0  0  0
   19.2538   17.4498   25.8429 H   0  0  0  0  0  0  0  0  0  0  0  0
   19.1953   18.3950   23.9441 C   0  0  0  0  0  0  0  0  0  0  0  0
   18.3436   19.0230   24.2191 H   0  0  0  0  0  0  0  0  0  0  0  0
   18.8146   17.4995   23.4455 H   0  0  0  0  0  0  0  0  0  0  0  0
   20.1200   19.1672   22.9859 C   0  0  0  0  0  0  0  0  0  0  0  0
   20.5125   20.0570   23.4958 H   0  0  0  0  0  0  0  0  0  0  0  0
   20.9795   18.5345   22.7309 H   0  0  0  0  0  0  0  0  0  0  0  0
   19.3719   19.5914   21.7000 C   0  0  0  0  0  0  0  0  0  0  0  0
   18.4733   20.1589   21.9796 H   0  0  0  0  0  0  0  0  0  0  0  0
   19.0190   18.6985   21.1655 H   0  0  0  0  0  0  0  0  0  0  0  0
   20.2266   20.4614   20.7464 C   0  0  0  0  0  0  0  0  0  0  0  0
   19.5918   20.8035   19.9170 H   0  0  0  0  0  0  0  0  0  0  0  0
   20.5620   21.3676   21.2700 H   0  0  0  0  0  0  0  0  0  0  0  0
   21.4487   19.7157   20.1633 C   0  0  0  0  0  0  0  0  0  0  0  0
   21.1429   18.7903   19.6583 H   0  0  0  0  0  0  0  0  0  0  0  0
   21.9664   20.3440   19.4269 H   0  0  0  0  0  0  0  0  0  0  0  0
   22.1747   19.4580   20.9442 H   0  0  0  0  0  0  0  0  0  0  0  0
  1  2  1  0  0  0  0
  1  3  1  0  0  0  0
  1  4  1  0  0  0  0
  1  5  1  0  0  0  0
  5  6  1  0  0  0  0
  5  7  1  0  0  0  0
  5  8  1  0  0  0  0
  8  9  1  0  0  0  0
  8 10  1  0  0  0  0
  8 11  1  0  0  0  0
 11 12  1  0  0  0  0
 11 13  1  0  0  0  0
 11 14  1  0  0  0  0
 14 15  1  0  0  0  0
 14 16  1  0  0  0  0
 14 17  1  0  0  0  0
 17 18  1  0  0  0  0
 17 19  1  0  0  0  0
 17 20  1  0  0  0  0
M  END
> <VConfSearch Rank>
370

> <Conf_Id>
42

> <Delta U+W>
0.508

> <U+W>
-11.270

> <U>
46.486

> <W>
-57.756

> <W(PB)>
-59.705

> <W(SA)>
1.949

> <Valence>
1.806

> <Coulomb>
44.248

> <VdW>
0.433

> <VdW6>
-4.089

> <VdW12>
4.522

> <Bond>
0.131

> <Angle>
0.628

> <Pdih>
1.047

> <Idih>
0.000

> <Tether>
0.000

$$$$
VeraChem MOL file


 20 19  0  0  0  0  0  0  0  0999 V2000     
   18.3160   18.7642   20.1266 N   0  3  0  0  0  0  0  0  0  0  0  0
   18.4265   19.7107   19.7494 H   0  0  0  0  0  0  0  0  0  0  0  0
   18.9922   18.1657   19.6419 H   0  0  0  0  0  0  0  0  0  0  0  0
   17.3824   18.4416   19.8510 H   0  0  0  0  0  0  0  0  0  0  0  0
   18.5030   18.7281   21.6301 C   0  0  0  0  0  0  0  0  0  0  0  0
   18.3422   17.7000   21.9657 H   0  0  0  0  0  0  0  0  0  0  0  0
   17.7335   19.3606   22.0810 H   0  0  0  0  0  0  0  0  0  0  0  0
   19.8953   19.2072   22.0785 C   0  0  0  0  0  0  0  0  0  0  0  0
   20.6596   18.5771   21.6063 H   0  0  0  0  0  0  0  0  0  0  0  0
   20.0588   20.2342   21.7258 H   0  0  0  0  0  0  0  0  0  0  0  0
   20.0407   19.1559   23.6178 C   0  0  0  0  0  0  0  0  0  0  0  0
   19.9228   18.1204   23.9664 H   0  0  0  0  0  0  0  0  0  0  0  0
   19.2219   19.7299   24.0737 H   0  0  0  0  0  0  0  0  0  0  0  0
   21.3860   19.7248   24.1307 C   0  0  0  0  0  0  0  0  0  0  0  0
   21.4971   20.7683   23.8044 H   0  0  0  0  0  0  0  0  0  0  0  0
   21.3632   19.7477   25.2293 H   0  0  0  0  0  0  0  0  0  0  0  0
   22.6142   18.9041   23.6752 C   0  0  0  0  0  0  0  0  0  0  0  0
   22.7502   18.9509   22.5877 H   0  0  0  0  0  0  0  0  0  0  0  0
   23.5299   19.2939   24.1385 H   0  0  0  0  0  0  0  0  0  0  0  0
   22.5147   17.8500   23.9649 H   0  0  0  0  0  0  0  0  0  0  0  0
  1  2  1  0  0  0  0
  1  3  1  0  0  0  0
  1  4  1  0  0  0  0
  1  5  1  0  0  0  0
  5  6  1  0  0  0  0
  5  7  1  0  0  0  0
  5  8  1  0  0  0  0
  8  9  1  0  0  0  0
  8 10  1  0  0  0  0
  8 11  1  0  0  0  0
 11 12  1  0  0  0  0
 11 13  1  0  0  0  0
 11 14  1  0  0  0  0
 14 15  1  0  0  0  0
 14 16  1  0  0  0  0
 14 17  1  0  0  0  0
 17 18  1  0  0  0  0
 17 19  1  0  0  0  0
 17 20  1  0  0  0  0
M  END
> <VConfSearch Rank>
371

> <Conf_Id>
41

> <Delta U+W>
0.515

> <U+W>
-11.263

> <U>
46.486

> <W>
-57.749

> <W(PB)>
-59.685

> <W(SA)>
1.936

> <Valence>
1.806

> <Coulomb>
44.248

> <VdW>
0.433

> <VdW6>
-4.089

> <VdW12>
4.522

> <Bond>
0.131

> <Angle>
0.628

> <Pdih>
1.047

> <Idih>
0.000

> <Tether>
0.000

$$$$
VeraChem MOL file


 20 19  0  0  0  0  0  0  0  0999 V2000     
   18.9528   16.8847   23.5577 N   0  3  0  0  0  0  0  0  0  0  0  0
   18.7859   15.8733   23.5840 H   0  0  0  0  0  0  0  0  0  0  0  0
   19.7109   17.0789   24.2183 H   0  0  0  0  0  0  0  0  0  0  0  0
   18.1086   17.3354   23.9243 H   0  0  0  0  0  0  0  0  0  0  0  0
   19.2863   17.3636   22.1578 C   0  0  0  0  0  0  0  0  0  0  0  0
   18.4545   17.0832   21.5058 H   0  0  0  0  0  0  0  0  0  0  0  0
   20.1783   16.8296   21.8192 H   0  0  0  0  0  0  0  0  0  0  0  0
   19.5222   18.8835   22.0571 C   0  0  0  0  0  0  0  0  0  0  0  0
   19.6368   19.1385   20.9962 H   0  0  0  0  0  0  0  0  0  0  0  0
   18.6314   19.4170   22.4142 H   0  0  0  0  0  0  0  0  0  0  0  0
   20.7724   19.3487   22.8456 C   0  0  0  0  0  0  0  0  0  0  0  0
   21.6630   18.8276   22.4676 H   0  0  0  0  0  0  0  0  0  0  0  0
   20.6688   19.0585   23.8994 H   0  0  0  0  0  0  0  0  0  0  0  0
   21.0047   20.8782   22.7864 C   0  0  0  0  0  0  0  0  0  0  0  0
   20.1218   21.4038   23.1763 H   0  0  0  0  0  0  0  0  0  0  0  0
   21.8357   21.1343   23.4586 H   0  0  0  0  0  0  0  0  0  0  0  0
   21.3353   21.3975   21.3684 C   0  0  0  0  0  0  0  0  0  0  0  0
   20.4850   21.2779   20.6857 H   0  0  0  0  0  0  0  0  0  0  0  0
   21.5841   22.4662   21.3993 H   0  0  0  0  0  0  0  0  0  0  0  0
   22.1961   20.8653   20.9432 H   0  0  0  0  0  0  0  0  0  0  0  0
  1  2  1  0  0  0  0
  1  3  1  0  0  0  0
  1  4  1  0  0  0  0
  1  5  1  0  0  0  0
  5  6  1  0  0  0  0
  5  7  1  0  0  0  0
  5  8  1  0  0  0  0
  8  9  1  0  0  0  0
  8 10  1  0  0  0  0
  8 11  1  0  0  0  0
 11 12  1  0  0  0  0
 11 13  1  0  0  0  0
 11 14  1  0  0  0  0
 14 15  1  0  0  0  0
 14 16  1  0  0  0  0
 14 17  1  0  0  0  0
 17 18  1  0  0  0  0
 17 19  1  0  0  0  0
 17 20  1  0  0  0  0
M  END
> <VConfSearch Rank>
372

> <Conf_Id>
33

> <Delta U+W>
0.703

> <U+W>
-11.075

> <U>
47.080

> <W>
-58.154

> <W(PB)>
-60.053

> <W(SA)>
1.899

> <Valence>
1.943

> <Coulomb>
44.572

> <VdW>
0.565

> <VdW6>
-4.575

> <VdW12>
5.139

> <Bond>
0.158

> <Angle>
0.700

> <Pdih>
1.085

> <Idih>
0.000

> <Tether>
0.000

$$$$
VeraChem MOL file


 20 19  0  0  0  0  0  0  0  0999 V2000     
   22.3082   20.3458   23.6860 N   0  3  0  0  0  0  0  0  0  0  0  0
   22.9853   20.4250   24.4520 H   0  0  0  0  0  0  0  0  0  0  0  0
   22.7703   20.6995   22.8425 H   0  0  0  0  0  0  0  0  0  0  0  0
   21.5387   20.9865   23.9009 H   0  0  0  0  0  0  0  0  0  0  0  0
   21.8235   18.9196   23.5088 C   0  0  0  0  0  0  0  0  0  0  0  0
   21.3642   18.5975   24.4473 H   0  0  0  0  0  0  0  0  0  0  0  0
   22.7008   18.2927   23.3273 H   0  0  0  0  0  0  0  0  0  0  0  0
   20.8210   18.7396   22.3520 C   0  0  0  0  0  0  0  0  0  0  0  0
   21.2789   19.0801   21.4139 H   0  0  0  0  0  0  0  0  0  0  0  0
   20.6279   17.6659   22.2356 H   0  0  0  0  0  0  0  0  0  0  0  0
   19.4863   19.4884   22.5947 C   0  0  0  0  0  0  0  0  0  0  0  0
   19.6890   20.5568   22.7468 H   0  0  0  0  0  0  0  0  0  0  0  0
   19.0228   19.1266   23.5230 H   0  0  0  0  0  0  0  0  0  0  0  0
   18.4800   19.3493   21.4264 C   0  0  0  0  0  0  0  0  0  0  0  0
   17.6156   19.9977   21.6272 H   0  0  0  0  0  0  0  0  0  0  0  0
   18.9341   19.7227   20.4979 H   0  0  0  0  0  0  0  0  0  0  0  0
   17.9770   17.9029   21.2145 C   0  0  0  0  0  0  0  0  0  0  0  0
   17.5464   17.4948   22.1381 H   0  0  0  0  0  0  0  0  0  0  0  0
   17.1979   17.8768   20.4417 H   0  0  0  0  0  0  0  0  0  0  0  0
   18.7857   17.2375   20.8882 H   0  0  0  0  0  0  0  0  0  0  0  0
  1  2  1  0  0  0  0
  1  3  1  0  0  0  0
  1  4  1  0  0  0  0
  1  5  1  0  0  0  0
  5  6  1  0  0  0  0
  5  7  1  0  0  0  0
  5  8  1  0  0  0  0
  8  9  1  0  0  0  0
  8 10  1  0  0  0  0
  8 11  1  0  0  0  0
 11 12  1  0  0  0  0
 11 13  1  0  0  0  0
 11 14  1  0  0  0  0
 14 15  1  0  0  0  0
 14 16  1  0  0  0  0
 14 17  1  0  0  0  0
 17 18  1  0  0  0  0
 17 19  1  0  0  0  0
 17 20  1  0  0  0  0
M  END
> <VConfSearch Rank>
373

> <Conf_Id>
24

> <Delta U+W>
0.847

> <U+W>
-10.931

> <U>
47.080

> <W>
-58.011

> <W(PB)>
-59.914

> <W(SA)>
1.903

> <Valence>
1.943

> <Coulomb>
44.572

> <VdW>
0.565

> <VdW6>
-4.575

> <VdW12>
5.140

> <Bond>
0.158

> <Angle>
0.700

> <Pdih>
1.085

> <Idih>
0.000

> <Tether>
0.000

$$$$
VeraChem MOL file


 20 19  0  0  0  0  0  0  0  0999 V2000     
   20.6597   21.2031   24.3027 N   0  3  0  0  0  0  0  0  0  0  0  0
   20.4540   21.1968   25.3073 H   0  0  0  0  0  0  0  0  0  0  0  0
   21.6699   21.0613   24.2052 H   0  0  0  0  0  0  0  0  0  0  0  0
   20.4540   22.1480   23.9634 H   0  0  0  0  0  0  0  0  0  0  0  0
   19.8652   20.1489   23.5586 C   0  0  0  0  0  0  0  0  0  0  0  0
   18.8028   20.3431   23.7293 H   0  0  0  0  0  0  0  0  0  0  0  0
   20.1108   19.1756   23.9914 H   0  0  0  0  0  0  0  0  0  0  0  0
   20.1517   20.1311   22.0453 C   0  0  0  0  0  0  0  0  0  0  0  0
   19.9413   21.1249   21.6284 H   0  0  0  0  0  0  0  0  0  0  0  0
   21.2195   19.9453   21.8730 H   0  0  0  0  0  0  0  0  0  0  0  0
   19.3020   19.0812   21.2866 C   0  0  0  0  0  0  0  0  0  0  0  0
   19.5467   19.1307   20.2166 H   0  0  0  0  0  0  0  0  0  0  0  0
   18.2410   19.3560   21.3666 H   0  0  0  0  0  0  0  0  0  0  0  0
   19.4778   17.6221   21.7798 C   0  0  0  0  0  0  0  0  0  0  0  0
   19.1372   17.5293   22.8201 H   0  0  0  0  0  0  0  0  0  0  0  0
   18.8191   16.9708   21.1883 H   0  0  0  0  0  0  0  0  0  0  0  0
   20.9288   17.1034   21.6596 C   0  0  0  0  0  0  0  0  0  0  0  0
   20.9813   16.0414   21.9324 H   0  0  0  0  0  0  0  0  0  0  0  0
   21.3005   17.2045   20.6317 H   0  0  0  0  0  0  0  0  0  0  0  0
   21.6080   17.6488   22.3266 H   0  0  0  0  0  0  0  0  0  0  0  0
  1  2  1  0  0  0  0
  1  3  1  0  0  0  0
  1  4  1  0  0  0  0
  1  5  1  0  0  0  0
  5  6  1  0  0  0  0
  5  7  1  0  0  0  0
  5  8  1  0  0  0  0
  8  9  1  0  0  0  0
  8 10  1  0  0  0  0
  8 11  1  0  0  0  0
 11 12  1  0  0  0  0
 11 13  1  0  0  0  0
 11 14  1  0  0  0  0
 14 15  1  0  0  0  0
 14 16  1  0  0  0  0
 14 17  1  0  0  0  0
 17 18  1  0  0  0  0
 17 19  1  0  0  0  0
 17 20  1  0  0  0  0
M  END
> <VConfSearch Rank>
374

> <Conf_Id>
64

> <Delta U+W>
0.707

> <U+W>
-11.070

> <U>
47.077

> <W>
-58.148

> <W(PB)>
-60.054

> <W(SA)>
1.906

> <Valence>
2.039

> <Coulomb>
44.655

> <VdW>
0.383

> <VdW6>
-4.912

> <VdW12>
5.295

> <Bond>
0.159

> <Angle>
0.856

> <Pdih>
1.024

> <Idih>
0.000

> <Tether>
0.000

$$$$
VeraChem MOL file


 20 19  0  0  0  0  0  0  0  0999 V2000     
   18.7097   16.9338   23.3753 N   0  3  0  0  0  0  0  0  0  0  0  0
   17.9771   17.1808   24.0481 H   0  0  0  0  0  0  0  0  0  0  0  0
   18.2581   16.8363   22.4605 H   0  0  0  0  0  0  0  0  0  0  0  0
   19.0532   16.0041   23.6381 H   0  0  0  0  0  0  0  0  0  0  0  0
   19.8246   17.9598   23.3503 C   0  0  0  0  0  0  0  0  0  0  0  0
   20.5798   17.6177   22.6378 H   0  0  0  0  0  0  0  0  0  0  0  0
   20.2784   17.9902   24.3445 H   0  0  0  0  0  0  0  0  0  0  0  0
   19.3417   19.3689   22.9581 C   0  0  0  0  0  0  0  0  0  0  0  0
   18.8777   19.3377   21.9640 H   0  0  0  0  0  0  0  0  0  0  0  0
   18.5545   19.6855   23.6551 H   0  0  0  0  0  0  0  0  0  0  0  0
   20.4795   20.4200   22.9790 C   0  0  0  0  0  0  0  0  0  0  0  0
   20.8467   20.5275   24.0091 H   0  0  0  0  0  0  0  0  0  0  0  0
   20.0650   21.3993   22.7026 H   0  0  0  0  0  0  0  0  0  0  0  0
   21.6802   20.0981   22.0528 C   0  0  0  0  0  0  0  0  0  0  0  0
   22.4296   20.8947   22.1612 H   0  0  0  0  0  0  0  0  0  0  0  0
   22.1748   19.1733   22.3799 H   0  0  0  0  0  0  0  0  0  0  0  0
   21.2916   19.9802   20.5614 C   0  0  0  0  0  0  0  0  0  0  0  0
   20.7762   20.8853   20.2149 H   0  0  0  0  0  0  0  0  0  0  0  0
   22.1866   19.8451   19.9404 H   0  0  0  0  0  0  0  0  0  0  0  0
   20.6341   19.1202   20.3833 H   0  0  0  0  0  0  0  0  0  0  0  0
  1  2  1  0  0  0  0
  1  3  1  0  0  0  0
  1  4  1  0  0  0  0
  1  5  1  0  0  0  0
  5  6  1  0  0  0  0
  5  7  1  0  0  0  0
  5  8  1  0  0  0  0
  8  9  1  0  0  0  0
  8 10  1  0  0  0  0
  8 11  1  0  0  0  0
 11 12  1  0  0  0  0
 11 13  1  0  0  0  0
 11 14  1  0  0  0  0
 14 15  1  0  0  0  0
 14 16  1  0  0  0  0
 14 17  1  0  0  0  0
 17 18  1  0  0  0  0
 17 19  1  0  0  0  0
 17 20  1  0  0  0  0
M  END
> <VConfSearch Rank>
375

> <Conf_Id>
22

> <Delta U+W>
0.731

> <U+W>
-11.047

> <U>
47.078

> <W>
-58.125

> <W(PB)>
-60.031

> <W(SA)>
1.906

> <Valence>
2.039

> <Coulomb>
44.655

> <VdW>
0.383

> <VdW6>
-4.913

> <VdW12>
5.296

> <Bond>
0.159

> <Angle>
0.856

> <Pdih>
1.024

> <Idih>
0.000

> <Tether>
0.000

$$$$
VeraChem MOL file


 20 19  0  0  0  0  0  0  0  0999 V2000     
   18.1653   21.0439   22.1075 N   0  3  0  0  0  0  0  0  0  0  0  0
   17.8561   20.8217   21.1560 H   0  0  0  0  0  0  0  0  0  0  0  0
   17.3623   20.8967   22.7271 H   0  0  0  0  0  0  0  0  0  0  0  0
   18.3742   22.0477   22.1255 H   0  0  0  0  0  0  0  0  0  0  0  0
   19.3616   20.2117   22.5232 C   0  0  0  0  0  0  0  0  0  0  0  0
   19.6533   20.5184   23.5313 H   0  0  0  0  0  0  0  0  0  0  0  0
   20.1806   20.4434   21.8385 H   0  0  0  0  0  0  0  0  0  0  0  0
   19.0818   18.6985   22.5012 C   0  0  0  0  0  0  0  0  0  0  0  0
   18.1828   18.4970   23.0987 H   0  0  0  0  0  0  0  0  0  0  0  0
   18.8487   18.3847   21.4750 H   0  0  0  0  0  0  0  0  0  0  0  0
   20.2437   17.8366   23.0573 C   0  0  0  0  0  0  0  0  0  0  0  0
   19.8995   16.7932   23.0782 H   0  0  0  0  0  0  0  0  0  0  0  0
   20.4457   18.1031   24.1040 H   0  0  0  0  0  0  0  0  0  0  0  0
   21.5531   17.8924   22.2283 C   0  0  0  0  0  0  0  0  0  0  0  0
   22.0878   16.9417   22.3641 H   0  0  0  0  0  0  0  0  0  0  0  0
   21.3229   17.9580   21.1557 H   0  0  0  0  0  0  0  0  0  0  0  0
   22.5094   19.0355   22.6427 C   0  0  0  0  0  0  0  0  0  0  0  0
   22.0822   20.0252   22.4508 H   0  0  0  0  0  0  0  0  0  0  0  0
   22.7586   18.9729   23.7099 H   0  0  0  0  0  0  0  0  0  0  0  0
   23.4489   18.9702   22.0787 H   0  0  0  0  0  0  0  0  0  0  0  0
  1  2  1  0  0  0  0
  1  3  1  0  0  0  0
  1  4  1  0  0  0  0
  1  5  1  0  0  0  0
  5  6  1  0  0  0  0
  5  7  1  0  0  0  0
  5  8  1  0  0  0  0
  8  9  1  0  0  0  0
  8 10  1  0  0  0  0
  8 11  1  0  0  0  0
 11 12  1  0  0  0  0
 11 13  1  0  0  0  0
 11 14  1  0  0  0  0
 14 15  1  0  0  0  0
 14 16  1  0  0  0  0
 14 17  1  0  0  0  0
 17 18  1  0  0  0  0
 17 19  1  0  0  0  0
 17 20  1  0  0  0  0
M  END
> <VConfSearch Rank>
376

> <Conf_Id>
61

> <Delta U+W>
2.669

> <U+W>
-9.108

> <U>
48.916

> <W>
-58.025

> <W(PB)>
-59.935

> <W(SA)>
1.911

> <Valence>
3.785

> <Coulomb>
44.716

> <VdW>
0.415

> <VdW6>
-4.836

> <VdW12>
5.251

> <Bond>
0.175

> <Angle>
1.195

> <Pdih>
2.415

> <Idih>
0.000

> <Tether>
0.000

$$$$
VeraChem MOL file


 20 19  0  0  0  0  0  0  0  0999 V2000     
   19.1406   17.4133   23.6920 N   0  3  0  0  0  0  0  0  0  0  0  0
   18.5924   16.5471   23.6626 H   0  0  0  0  0  0  0  0  0  0  0  0
   19.2181   17.6819   24.6779 H   0  0  0  0  0  0  0  0  0  0  0  0
   18.5864   18.1356   23.2248 H   0  0  0  0  0  0  0  0  0  0  0  0
   20.5026   17.2382   23.0479 C   0  0  0  0  0  0  0  0  0  0  0  0
   20.3606   16.8969   22.0190 H   0  0  0  0  0  0  0  0  0  0  0  0
   21.0153   16.4452   23.5991 H   0  0  0  0  0  0  0  0  0  0  0  0
   21.3813   18.5068   23.0626 C   0  0  0  0  0  0  0  0  0  0  0  0
   21.3068   19.0051   24.0383 H   0  0  0  0  0  0  0  0  0  0  0  0
   22.4279   18.1887   22.9667 H   0  0  0  0  0  0  0  0  0  0  0  0
   21.0839   19.5104   21.9189 C   0  0  0  0  0  0  0  0  0  0  0  0
   21.2197   19.0114   20.9494 H   0  0  0  0  0  0  0  0  0  0  0  0
   21.8383   20.3083   21.9598 H   0  0  0  0  0  0  0  0  0  0  0  0
   19.6770   20.1504   21.9769 C   0  0  0  0  0  0  0  0  0  0  0  0
   18.9096   19.3896   21.7867 H   0  0  0  0  0  0  0  0  0  0  0  0
   19.4928   20.5580   22.9808 H   0  0  0  0  0  0  0  0  0  0  0  0
   19.5215   21.2768   20.9328 C   0  0  0  0  0  0  0  0  0  0  0  0
   18.5155   21.7136   20.9804 H   0  0  0  0  0  0  0  0  0  0  0  0
   20.2461   22.0825   21.1090 H   0  0  0  0  0  0  0  0  0  0  0  0
   19.6751   20.8955   19.9149 H   0  0  0  0  0  0  0  0  0  0  0  0
  1  2  1  0  0  0  0
  1  3  1  0  0  0  0
  1  4  1  0  0  0  0
  1  5  1  0  0  0  0
  5  6  1  0  0  0  0
  5  7  1  0  0  0  0
  5  8  1  0  0  0  0
  8  9  1  0  0  0  0
  8 10  1  0  0  0  0
  8 11  1  0  0  0  0
 11 12  1  0  0  0  0
 11 13  1  0  0  0  0
 11 14  1  0  0  0  0
 14 15  1  0  0  0  0
 14 16  1  0  0  0  0
 14 17  1  0  0  0  0
 17 18  1  0  0  0  0
 17 19  1  0  0  0  0
 17 20  1  0  0  0  0
M  END
> <VConfSearch Rank>
377

> <Conf_Id>
69

> <Delta U+W>
2.811

> <U+W>
-8.967

> <U>
49.216

> <W>
-58.183

> <W(PB)>
-60.064

> <W(SA)>
1.881

> <Valence>
2.929

> <Coulomb>
46.006

> <VdW>
0.281

> <VdW6>
-4.909

> <VdW12>
5.190

> <Bond>
0.156

> <Angle>
0.974

> <Pdih>
1.799

> <Idih>
0.000

> <Tether>
0.000

$$$$
VeraChem MOL file


 20 19  0  0  0  0  0  0  0  0999 V2000     
   21.0090   20.9549   21.3249 N   0  3  0  0  0  0  0  0  0  0  0  0
   19.9960   20.8119   21.3470 H   0  0  0  0  0  0  0  0  0  0  0  0
   21.2277   21.6779   22.0176 H   0  0  0  0  0  0  0  0  0  0  0  0
   21.2379   21.3463   20.4051 H   0  0  0  0  0  0  0  0  0  0  0  0
   21.7691   19.6701   21.5936 C   0  0  0  0  0  0  0  0  0  0  0  0
   22.8337   19.9130   21.5383 H   0  0  0  0  0  0  0  0  0  0  0  0
   21.5433   18.9579   20.7954 H   0  0  0  0  0  0  0  0  0  0  0  0
   21.4722   19.0303   22.9662 C   0  0  0  0  0  0  0  0  0  0  0  0
   22.3238   18.3873   23.2256 H   0  0  0  0  0  0  0  0  0  0  0  0
   21.4336   19.8058   23.7426 H   0  0  0  0  0  0  0  0  0  0  0  0
   20.1902   18.1593   23.0079 C   0  0  0  0  0  0  0  0  0  0  0  0
   20.1438   17.6665   23.9889 H   0  0  0  0  0  0  0  0  0  0  0  0
   20.2708   17.3536   22.2651 H   0  0  0  0  0  0  0  0  0  0  0  0
   18.8756   18.9416   22.7796 C   0  0  0  0  0  0  0  0  0  0  0  0
   18.8386   19.8136   23.4476 H   0  0  0  0  0  0  0  0  0  0  0  0
   18.8352   19.3167   21.7493 H   0  0  0  0  0  0  0  0  0  0  0  0
   17.6363   18.0555   23.0288 C   0  0  0  0  0  0  0  0  0  0  0  0
   17.6138   17.6884   24.0632 H   0  0  0  0  0  0  0  0  0  0  0  0
   16.7127   18.6222   22.8533 H   0  0  0  0  0  0  0  0  0  0  0  0
   17.6309   17.1867   22.3577 H   0  0  0  0  0  0  0  0  0  0  0  0
  1  2  1  0  0  0  0
  1  3  1  0  0  0  0
  1  4  1  0  0  0  0
  1  5  1  0  0  0  0
  5  6  1  0  0  0  0
  5  7  1  0  0  0  0
  5  8  1  0  0  0  0
  8  9  1  0  0  0  0
  8 10  1  0  0  0  0
  8 11  1  0  0  0  0
 11 12  1  0  0  0  0
 11 13  1  0  0  0  0
 11 14  1  0  0  0  0
 14 15  1  0  0  0  0
 14 16  1  0  0  0  0
 14 17  1  0  0  0  0
 17 18  1  0  0  0  0
 17 19  1  0  0  0  0
 17 20  1  0  0  0  0
M  END
> <VConfSearch Rank>
378

> <Conf_Id>
26

> <Delta U+W>
2.809

> <U+W>
-8.969

> <U>
49.216

> <W>
-58.185

> <W(PB)>
-60.088

> <W(SA)>
1.903

> <Valence>
2.929

> <Coulomb>
46.006

> <VdW>
0.281

> <VdW6>
-4.909

> <VdW12>
5.190

> <Bond>
0.156

> <Angle>
0.974

> <Pdih>
1.799

> <Idih>
0.000

> <Tether>
0.000

$$$$
VeraChem MOL file


 20 19  0  0  0  0  0  0  0  0999 V2000     
   19.4924   21.0268   21.0436 N   0  3  0  0  0  0  0  0  0  0  0  0
   20.1500   21.3923   21.7385 H   0  0  0  0  0  0  0  0  0  0  0  0
   19.9494   21.0952   20.1289 H   0  0  0  0  0  0  0  0  0  0  0  0
   18.6898   21.6646   21.0246 H   0  0  0  0  0  0  0  0  0  0  0  0
   19.0747   19.6041   21.3601 C   0  0  0  0  0  0  0  0  0  0  0  0
   18.3535   19.2918   20.6000 H   0  0  0  0  0  0  0  0  0  0  0  0
   18.5671   19.6062   22.3283 H   0  0  0  0  0  0  0  0  0  0  0  0
   20.2497   18.6058   21.3916 C   0  0  0  0  0  0  0  0  0  0  0  0
   19.8514   17.5954   21.5500 H   0  0  0  0  0  0  0  0  0  0  0  0
   20.7311   18.5864   20.4049 H   0  0  0  0  0  0  0  0  0  0  0  0
   21.3160   18.9208   22.4737 C   0  0  0  0  0  0  0  0  0  0  0  0
   21.8267   19.8589   22.2184 H   0  0  0  0  0  0  0  0  0  0  0  0
   22.0914   18.1429   22.4429 H   0  0  0  0  0  0  0  0  0  0  0  0
   20.7646   19.0264   23.9186 C   0  0  0  0  0  0  0  0  0  0  0  0
   21.5960   19.2721   24.5941 H   0  0  0  0  0  0  0  0  0  0  0  0
   20.0566   19.8627   23.9954 H   0  0  0  0  0  0  0  0  0  0  0  0
   20.0888   17.7274   24.4133 C   0  0  0  0  0  0  0  0  0  0  0  0
   20.7711   16.8714   24.3313 H   0  0  0  0  0  0  0  0  0  0  0  0
   19.7962   17.8233   25.4669 H   0  0  0  0  0  0  0  0  0  0  0  0
   19.1822   17.5009   23.8385 H   0  0  0  0  0  0  0  0  0  0  0  0
  1  2  1  0  0  0  0
  1  3  1  0  0  0  0
  1  4  1  0  0  0  0
  1  5  1  0  0  0  0
  5  6  1  0  0  0  0
  5  7  1  0  0  0  0
  5  8  1  0  0  0  0
  8  9  1  0  0  0  0
  8 10  1  0  0  0  0
  8 11  1  0  0  0  0
 11 12  1  0  0  0  0
 11 13  1  0  0  0  0
 11 14  1  0  0  0  0
 14 15  1  0  0  0  0
 14 16  1  0  0  0  0
 14 17  1  0  0  0  0
 17 18  1  0  0  0  0
 17 19  1  0  0  0  0
 17 20  1  0  0  0  0
M  END
> <VConfSearch Rank>
379

> <Conf_Id>
2

> <Delta U+W>
0.994

> <U+W>
-10.784

> <U>
47.562

> <W>
-58.346

> <W(PB)>
-60.221

> <W(SA)>
1.875

> <Valence>
2.149

> <Coulomb>
45.034

> <VdW>
0.378

> <VdW6>
-5.599

> <VdW12>
5.977

> <Bond>
0.185

> <Angle>
0.935

> <Pdih>
1.028

> <Idih>
0.000

> <Tether>
0.000

$$$$
VeraChem MOL file


 20 19  0  0  0  0  0  0  0  0999 V2000     
   20.1101   17.9409   24.5958 N   0  3  0  0  0  0  0  0  0  0  0  0
   20.8593   17.2693   24.7899 H   0  0  0  0  0  0  0  0  0  0  0  0
   20.4908   18.8764   24.7660 H   0  0  0  0  0  0  0  0  0  0  0  0
   19.3782   17.7821   25.2961 H   0  0  0  0  0  0  0  0  0  0  0  0
   19.5787   17.8000   23.1828 C   0  0  0  0  0  0  0  0  0  0  0  0
   18.7648   18.5180   23.0525 H   0  0  0  0  0  0  0  0  0  0  0  0
   19.1625   16.7939   23.0823 H   0  0  0  0  0  0  0  0  0  0  0  0
   20.6476   18.0227   22.0937 C   0  0  0  0  0  0  0  0  0  0  0  0
   21.4431   17.2753   22.2129 H   0  0  0  0  0  0  0  0  0  0  0  0
   20.1981   17.8272   21.1117 H   0  0  0  0  0  0  0  0  0  0  0  0
   21.2745   19.4418   22.1063 C   0  0  0  0  0  0  0  0  0  0  0  0
   21.9952   19.5172   21.2804 H   0  0  0  0  0  0  0  0  0  0  0  0
   21.8618   19.5715   23.0252 H   0  0  0  0  0  0  0  0  0  0  0  0
   20.2549   20.6041   21.9938 C   0  0  0  0  0  0  0  0  0  0  0  0
   19.5826   20.6058   22.8624 H   0  0  0  0  0  0  0  0  0  0  0  0
   20.8026   21.5561   22.0345 H   0  0  0  0  0  0  0  0  0  0  0  0
   19.4215   20.5647   20.6927 C   0  0  0  0  0  0  0  0  0  0  0  0
   18.7686   19.6837   20.6591 H   0  0  0  0  0  0  0  0  0  0  0  0
   18.7811   21.4531   20.6193 H   0  0  0  0  0  0  0  0  0  0  0  0
   20.0712   20.5455   19.8082 H   0  0  0  0  0  0  0  0  0  0  0  0
  1  2  1  0  0  0  0
  1  3  1  0  0  0  0
  1  4  1  0  0  0  0
  1  5  1  0  0  0  0
  5  6  1  0  0  0  0
  5  7  1  0  0  0  0
  5  8  1  0  0  0  0
  8  9  1  0  0  0  0
  8 10  1  0  0  0  0
  8 11  1  0  0  0  0
 11 12  1  0  0  0  0
 11 13  1  0  0  0  0
 11 14  1  0  0  0  0
 14 15  1  0  0  0  0
 14 16  1  0  0  0  0
 14 17  1  0  0  0  0
 17 18  1  0  0  0  0
 17 19  1  0  0  0  0
 17 20  1  0  0  0  0
M  END
> <VConfSearch Rank>
380

> <Conf_Id>
1

> <Delta U+W>
1.032

> <U+W>
-10.746

> <U>
47.562

> <W>
-58.308

> <W(PB)>
-60.184

> <W(SA)>
1.877

> <Valence>
2.149

> <Coulomb>
45.035

> <VdW>
0.378

> <VdW6>
-5.599

> <VdW12>
5.978

> <Bond>
0.185

> <Angle>
0.935

> <Pdih>
1.028

> <Idih>
0.000

> <Tether>
0.000

$$$$
VeraChem MOL file


 20 19  0  0  0  0  0  0  0  0999 V2000     
   21.8150   20.1638   23.8518 N   0  3  0  0  0  0  0  0  0  0  0  0
   21.7552   21.1777   23.9878 H   0  0  0  0  0  0  0  0  0  0  0  0
   21.1068   19.7351   24.4545 H   0  0  0  0  0  0  0  0  0  0  0  0
   22.7299   19.8687   24.2084 H   0  0  0  0  0  0  0  0  0  0  0  0
   21.6262   19.7774   22.3976 C   0  0  0  0  0  0  0  0  0  0  0  0
   21.7323   18.6941   22.3211 H   0  0  0  0  0  0  0  0  0  0  0  0
   22.4391   20.2357   21.8278 H   0  0  0  0  0  0  0  0  0  0  0  0
   20.2749   20.2282   21.8029 C   0  0  0  0  0  0  0  0  0  0  0  0
   20.2037   21.3189   21.9082 H   0  0  0  0  0  0  0  0  0  0  0  0
   20.2686   20.0298   20.7230 H   0  0  0  0  0  0  0  0  0  0  0  0
   19.0271   19.5780   22.4589 C   0  0  0  0  0  0  0  0  0  0  0  0
   18.1692   20.2411   22.2803 H   0  0  0  0  0  0  0  0  0  0  0  0
   19.1408   19.5352   23.5497 H   0  0  0  0  0  0  0  0  0  0  0  0
   18.6515   18.1773   21.9102 C   0  0  0  0  0  0  0  0  0  0  0  0
   17.7084   17.8650   22.3803 H   0  0  0  0  0  0  0  0  0  0  0  0
   18.4447   18.2444   20.8330 H   0  0  0  0  0  0  0  0  0  0  0  0
   19.7112   17.0822   22.1626 C   0  0  0  0  0  0  0  0  0  0  0  0
   20.0254   17.0657   23.2142 H   0  0  0  0  0  0  0  0  0  0  0  0
   19.3031   16.0927   21.9193 H   0  0  0  0  0  0  0  0  0  0  0  0
   20.5962   17.2298   21.5324 H   0  0  0  0  0  0  0  0  0  0  0  0
  1  2  1  0  0  0  0
  1  3  1  0  0  0  0
  1  4  1  0  0  0  0
  1  5  1  0  0  0  0
  5  6  1  0  0  0  0
  5  7  1  0  0  0  0
  5  8  1  0  0  0  0
  8  9  1  0  0  0  0
  8 10  1  0  0  0  0
  8 11  1  0  0  0  0
 11 12  1  0  0  0  0
 11 13  1  0  0  0  0
 11 14  1  0  0  0  0
 14 15  1  0  0  0  0
 14 16  1  0  0  0  0
 14 17  1  0  0  0  0
 17 18  1  0  0  0  0
 17 19  1  0  0  0  0
 17 20  1  0  0  0  0
M  END
> <VConfSearch Rank>
381

> <Conf_Id>
80

> <Delta U+W>
2.920

> <U+W>
-8.857

> <U>
49.434

> <W>
-58.292

> <W(PB)>
-60.170

> <W(SA)>
1.879

> <Valence>
3.798

> <Coulomb>
45.253

> <VdW>
0.384

> <VdW6>
-5.595

> <VdW12>
5.979

> <Bond>
0.198

> <Angle>
1.368

> <Pdih>
2.231

> <Idih>
0.000

> <Tether>
0.000

$$$$
VeraChem MOL file


 20 19  0  0  0  0  0  0  0  0999 V2000     
   18.9266   17.4572   21.5937 N   0  3  0  0  0  0  0  0  0  0  0  0
   18.8609   16.5773   22.1147 H   0  0  0  0  0  0  0  0  0  0  0  0
   18.2096   17.4243   20.8614 H   0  0  0  0  0  0  0  0  0  0  0  0
   19.8356   17.4626   21.1220 H   0  0  0  0  0  0  0  0  0  0  0  0
   18.7535   18.6627   22.4973 C   0  0  0  0  0  0  0  0  0  0  0  0
   17.7502   18.6083   22.9286 H   0  0  0  0  0  0  0  0  0  0  0  0
   18.8034   19.5583   21.8762 H   0  0  0  0  0  0  0  0  0  0  0  0
   19.7906   18.7411   23.6379 C   0  0  0  0  0  0  0  0  0  0  0  0
   19.5214   19.5597   24.3185 H   0  0  0  0  0  0  0  0  0  0  0  0
   19.7145   17.8202   24.2311 H   0  0  0  0  0  0  0  0  0  0  0  0
   21.2602   18.9161   23.1689 C   0  0  0  0  0  0  0  0  0  0  0  0
   21.4693   18.2752   22.3027 H   0  0  0  0  0  0  0  0  0  0  0  0
   21.9152   18.5470   23.9703 H   0  0  0  0  0  0  0  0  0  0  0  0
   21.6822   20.3761   22.8618 C   0  0  0  0  0  0  0  0  0  0  0  0
   21.5610   20.9942   23.7623 H   0  0  0  0  0  0  0  0  0  0  0  0
   22.7571   20.3829   22.6328 H   0  0  0  0  0  0  0  0  0  0  0  0
   20.9260   21.0301   21.6843 C   0  0  0  0  0  0  0  0  0  0  0  0
   19.8868   21.2545   21.9523 H   0  0  0  0  0  0  0  0  0  0  0  0
   21.4002   21.9803   21.4068 H   0  0  0  0  0  0  0  0  0  0  0  0
   20.9301   20.3823   20.7983 H   0  0  0  0  0  0  0  0  0  0  0  0
  1  2  1  0  0  0  0
  1  3  1  0  0  0  0
  1  4  1  0  0  0  0
  1  5  1  0  0  0  0
  5  6  1  0  0  0  0
  5  7  1  0  0  0  0
  5  8  1  0  0  0  0
  8  9  1  0  0  0  0
  8 10  1  0  0  0  0
  8 11  1  0  0  0  0
 11 12  1  0  0  0  0
 11 13  1  0  0  0  0
 11 14  1  0  0  0  0
 14 15  1  0  0  0  0
 14 16  1  0  0  0  0
 14 17  1  0  0  0  0
 17 18  1  0  0  0  0
 17 19  1  0  0  0  0
 17 20  1  0  0  0  0
M  END
> <VConfSearch Rank>
382

> <Conf_Id>
65

> <Delta U+W>
2.949

> <U+W>
-8.829

> <U>
49.435

> <W>
-58.263

> <W(PB)>
-60.125

> <W(SA)>
1.862

> <Valence>
3.797

> <Coulomb>
45.253

> <VdW>
0.384

> <VdW6>
-5.596

> <VdW12>
5.980

> <Bond>
0.198

> <Angle>
1.369

> <Pdih>
2.230

> <Idih>
0.000

> <Tether>
0.000

$$$$
VeraChem MOL file


 20 19  0  0  0  0  0  0  0  0999 V2000     
   19.1032   18.0771   23.6973 N   0  3  0  0  0  0  0  0  0  0  0  0
   19.1000   17.8596   24.6995 H   0  0  0  0  0  0  0  0  0  0  0  0
   18.9015   19.0770   23.6006 H   0  0  0  0  0  0  0  0  0  0  0  0
   18.3196   17.5660   23.2789 H   0  0  0  0  0  0  0  0  0  0  0  0
   20.4236   17.7138   23.0459 C   0  0  0  0  0  0  0  0  0  0  0  0
   20.5652   16.6391   23.1888 H   0  0  0  0  0  0  0  0  0  0  0  0
   21.2287   18.2347   23.5710 H   0  0  0  0  0  0  0  0  0  0  0  0
   20.4879   18.0340   21.5387 C   0  0  0  0  0  0  0  0  0  0  0  0
   21.2551   17.3873   21.0928 H   0  0  0  0  0  0  0  0  0  0  0  0
   19.5424   17.7503   21.0577 H   0  0  0  0  0  0  0  0  0  0  0  0
   20.8464   19.5035   21.1895 C   0  0  0  0  0  0  0  0  0  0  0  0
   20.9109   19.5743   20.0949 H   0  0  0  0  0  0  0  0  0  0  0  0
   21.8539   19.7409   21.5583 H   0  0  0  0  0  0  0  0  0  0  0  0
   19.8352   20.5708   21.6804 C   0  0  0  0  0  0  0  0  0  0  0  0
   19.7800   21.3719   20.9297 H   0  0  0  0  0  0  0  0  0  0  0  0
   18.8236   20.1463   21.7334 H   0  0  0  0  0  0  0  0  0  0  0  0
   20.2371   21.2139   23.0289 C   0  0  0  0  0  0  0  0  0  0  0  0
   20.3837   20.4714   23.8206 H   0  0  0  0  0  0  0  0  0  0  0  0
   21.1761   21.7733   22.9251 H   0  0  0  0  0  0  0  0  0  0  0  0
   19.4674   21.9209   23.3651 H   0  0  0  0  0  0  0  0  0  0  0  0
  1  2  1  0  0  0  0
  1  3  1  0  0  0  0
  1  4  1  0  0  0  0
  1  5  1  0  0  0  0
  5  6  1  0  0  0  0
  5  7  1  0  0  0  0
  5  8  1  0  0  0  0
  8  9  1  0  0  0  0
  8 10  1  0  0  0  0
  8 11  1  0  0  0  0
 11 12  1  0  0  0  0
 11 13  1  0  0  0  0
 11 14  1  0  0  0  0
 14 15  1  0  0  0  0
 14 16  1  0  0  0  0
 14 17  1  0  0  0  0
 17 18  1  0  0  0  0
 17 19  1  0  0  0  0
 17 20  1  0  0  0  0
M  END
> <VConfSearch Rank>
383

> <Conf_Id>
77

> <Delta U+W>
5.366

> <U+W>
-6.412

> <U>
51.542

> <W>
-57.954

> <W(PB)>
-59.811

> <W(SA)>
1.857

> <Valence>
5.347

> <Coulomb>
45.870

> <VdW>
0.325

> <VdW6>
-6.161

> <VdW12>
6.486

> <Bond>
0.201

> <Angle>
1.484

> <Pdih>
3.662

> <Idih>
0.000

> <Tether>
0.000

$$$$
VeraChem MOL file


 20 19  0  0  0  0  0  0  0  0999 V2000     
   22.0166   18.8504   21.6948 N   0  3  0  0  0  0  0  0  0  0  0  0
   22.0538   18.4818   20.7392 H   0  0  0  0  0  0  0  0  0  0  0  0
   21.4998   19.7344   21.6607 H   0  0  0  0  0  0  0  0  0  0  0  0
   22.9806   19.0696   21.9676 H   0  0  0  0  0  0  0  0  0  0  0  0
   21.3695   17.8681   22.6519 C   0  0  0  0  0  0  0  0  0  0  0  0
   21.4150   18.2817   23.6628 H   0  0  0  0  0  0  0  0  0  0  0  0
   21.9732   16.9568   22.6308 H   0  0  0  0  0  0  0  0  0  0  0  0
   19.9113   17.5143   22.2956 C   0  0  0  0  0  0  0  0  0  0  0  0
   19.8189   17.3660   21.2115 H   0  0  0  0  0  0  0  0  0  0  0  0
   19.6837   16.5410   22.7502 H   0  0  0  0  0  0  0  0  0  0  0  0
   18.8450   18.5285   22.7900 C   0  0  0  0  0  0  0  0  0  0  0  0
   18.8507   18.5724   23.8880 H   0  0  0  0  0  0  0  0  0  0  0  0
   17.8591   18.1267   22.5180 H   0  0  0  0  0  0  0  0  0  0  0  0
   18.9601   19.9572   22.2000 C   0  0  0  0  0  0  0  0  0  0  0  0
   19.4059   19.9240   21.1968 H   0  0  0  0  0  0  0  0  0  0  0  0
   17.9472   20.3604   22.0597 H   0  0  0  0  0  0  0  0  0  0  0  0
   19.7342   20.9331   23.1177 C   0  0  0  0  0  0  0  0  0  0  0  0
   19.8395   21.9146   22.6374 H   0  0  0  0  0  0  0  0  0  0  0  0
   19.1953   21.0840   24.0623 H   0  0  0  0  0  0  0  0  0  0  0  0
   20.7366   20.5688   23.3669 H   0  0  0  0  0  0  0  0  0  0  0  0
  1  2  1  0  0  0  0
  1  3  1  0  0  0  0
  1  4  1  0  0  0  0
  1  5  1  0  0  0  0
  5  6  1  0  0  0  0
  5  7  1  0  0  0  0
  5  8  1  0  0  0  0
  8  9  1  0  0  0  0
  8 10  1  0  0  0  0
  8 11  1  0  0  0  0
 11 12  1  0  0  0  0
 11 13  1  0  0  0  0
 11 14  1  0  0  0  0
 14 15  1  0  0  0  0
 14 16  1  0  0  0  0
 14 17  1  0  0  0  0
 17 18  1  0  0  0  0
 17 19  1  0  0  0  0
 17 20  1  0  0  0  0
M  END
> <VConfSearch Rank>
384

> <Conf_Id>
67

> <Delta U+W>
5.353

> <U+W>
-6.425

> <U>
51.541

> <W>
-57.966

> <W(PB)>
-59.821

> <W(SA)>
1.855

> <Valence>
5.347

> <Coulomb>
45.870

> <VdW>
0.325

> <VdW6>
-6.161

> <VdW12>
6.486

> <Bond>
0.201

> <Angle>
1.485

> <Pdih>
3.662

> <Idih>
0.000

> <Tether>
0.000

$$$$
VeraChem MOL file


 20 19  0  0  0  0  0  0  0  0999 V2000     
   18.6542   17.4080   24.7324 N   0  3  0  0  0  0  0  0  0  0  0  0
   17.7792   17.9408   24.7610 H   0  0  0  0  0  0  0  0  0  0  0  0
   18.4093   16.4254   24.8937 H   0  0  0  0  0  0  0  0  0  0  0  0
   19.2167   17.7093   25.5344 H   0  0  0  0  0  0  0  0  0  0  0  0
   19.3901   17.5970   23.4211 C   0  0  0  0  0  0  0  0  0  0  0  0
   18.7470   17.2288   22.6171 H   0  0  0  0  0  0  0  0  0  0  0  0
   20.2924   16.9802   23.4485 H   0  0  0  0  0  0  0  0  0  0  0  0
   19.7728   19.0627   23.1480 C   0  0  0  0  0  0  0  0  0  0  0  0
   18.8652   19.6809   23.1372 H   0  0  0  0  0  0  0  0  0  0  0  0
   20.4053   19.4331   23.9658 H   0  0  0  0  0  0  0  0  0  0  0  0
   20.5198   19.2115   21.8040 C   0  0  0  0  0  0  0  0  0  0  0  0
   19.8862   18.8351   20.9887 H   0  0  0  0  0  0  0  0  0  0  0  0
   21.4245   18.5877   21.8163 H   0  0  0  0  0  0  0  0  0  0  0  0
   20.9091   20.6794   21.5191 C   0  0  0  0  0  0  0  0  0  0  0  0
   20.0067   21.3067   21.5038 H   0  0  0  0  0  0  0  0  0  0  0  0
   21.5449   21.0593   22.3312 H   0  0  0  0  0  0  0  0  0  0  0  0
   21.6551   20.8233   20.1753 C   0  0  0  0  0  0  0  0  0  0  0  0
   21.0310   20.4831   19.3386 H   0  0  0  0  0  0  0  0  0  0  0  0
   21.9229   21.8718   19.9908 H   0  0  0  0  0  0  0  0  0  0  0  0
   22.5813   20.2339   20.1725 H   0  0  0  0  0  0  0  0  0  0  0  0
  1  2  1  0  0  0  0
  1  3  1  0  0  0  0
  1  4  1  0  0  0  0
  1  5  1  0  0  0  0
  5  6  1  0  0  0  0
  5  7  1  0  0  0  0
  5  8  1  0  0  0  0
  8  9  1  0  0  0  0
  8 10  1  0  0  0  0
  8 11  1  0  0  0  0
 11 12  1  0  0  0  0
 11 13  1  0  0  0  0
 11 14  1  0  0  0  0
 14 15  1  0  0  0  0
 14 16  1  0  0  0  0
 14 17  1  0  0  0  0
 17 18  1  0  0  0  0
 17 19  1  0  0  0  0
 17 20  1  0  0  0  0
M  END
> <VConfSearch Rank>
385

> <Conf_Id>
72

> <Delta U+W>
0.000

> <U+W>
-11.778

> <U>
45.772

> <W>
-57.550

> <W(PB)>
-59.511

> <W(SA)>
1.961

> <Valence>
1.299

> <Coulomb>
44.177

> <VdW>
0.297

> <VdW6>
-3.490

> <VdW12>
3.786

> <Bond>
0.096

> <Angle>
0.381

> <Pdih>
0.822

> <Idih>
0.000

> <Tether>
0.000

$$$$
VeraChem MOL file


 20 19  0  0  0  0  0  0  0  0999 V2000     
   21.5594   21.8054   22.4891 N   0  3  0  0  0  0  0  0  0  0  0  0
   20.9935   22.1451   23.2730 H   0  0  0  0  0  0  0  0  0  0  0  0
   22.4446   21.4681   22.8803 H   0  0  0  0  0  0  0  0  0  0  0  0
   21.7827   22.6207   21.9085 H   0  0  0  0  0  0  0  0  0  0  0  0
   20.8434   20.7296   21.6974 C   0  0  0  0  0  0  0  0  0  0  0  0
   21.4887   20.4381   20.8643 H   0  0  0  0  0  0  0  0  0  0  0  0
   19.9285   21.1652   21.2868 H   0  0  0  0  0  0  0  0  0  0  0  0
   20.4937   19.4898   22.5399 C   0  0  0  0  0  0  0  0  0  0  0  0
   21.4135   19.0651   22.9633 H   0  0  0  0  0  0  0  0  0  0  0  0
   19.8611   19.7967   23.3824 H   0  0  0  0  0  0  0  0  0  0  0  0
   19.7674   18.4187   21.6924 C   0  0  0  0  0  0  0  0  0  0  0  0
   20.3824   18.1807   20.8133 H   0  0  0  0  0  0  0  0  0  0  0  0
   18.8238   18.8291   21.3067 H   0  0  0  0  0  0  0  0  0  0  0  0
   19.4841   17.1072   22.4647 C   0  0  0  0  0  0  0  0  0  0  0  0
   19.0656   16.3697   21.7656 H   0  0  0  0  0  0  0  0  0  0  0  0
   20.4280   16.6806   22.8320 H   0  0  0  0  0  0  0  0  0  0  0  0
   18.5018   17.2884   23.6445 C   0  0  0  0  0  0  0  0  0  0  0  0
   17.5595   17.7400   23.3084 H   0  0  0  0  0  0  0  0  0  0  0  0
   18.2648   16.3179   24.0994 H   0  0  0  0  0  0  0  0  0  0  0  0
   18.9275   17.9248   24.4301 H   0  0  0  0  0  0  0  0  0  0  0  0
  1  2  1  0  0  0  0
  1  3  1  0  0  0  0
  1  4  1  0  0  0  0
  1  5  1  0  0  0  0
  5  6  1  0  0  0  0
  5  7  1  0  0  0  0
  5  8  1  0  0  0  0
  8  9  1  0  0  0  0
  8 10  1  0  0  0  0
  8 11  1  0  0  0  0
 11 12  1  0  0  0  0
 11 13  1  0  0  0  0
 11 14  1  0  0  0  0
 14 15  1  0  0  0  0
 14 16  1  0  0  0  0
 14 17  1  0  0  0  0
 17 18  1  0  0  0  0
 17 19  1  0  0  0  0
 17 20  1  0  0  0  0
M  END
> <VConfSearch Rank>
386

> <Conf_Id>
42

> <Delta U+W>
0.508

> <U+W>
-11.270

> <U>
46.486

> <W>
-57.756

> <W(PB)>
-59.705

> <W(SA)>
1.949

> <Valence>
1.806

> <Coulomb>
44.248

> <VdW>
0.433

> <VdW6>
-4.089

> <VdW12>
4.522

> <Bond>
0.131

> <Angle>
0.628

> <Pdih>
1.047

> <Idih>
0.000

> <Tether>
0.000

$$$$
VeraChem MOL file


 20 19  0  0  0  0  0  0  0  0999 V2000     
   19.0857   21.4582   23.9349 N   0  3  0  0  0  0  0  0  0  0  0  0
   18.0911   21.2985   23.7460 H   0  0  0  0  0  0  0  0  0  0  0  0
   19.2923   21.0309   24.8432 H   0  0  0  0  0  0  0  0  0  0  0  0
   19.2079   22.4700   24.0478 H   0  0  0  0  0  0  0  0  0  0  0  0
   19.9675   20.9039   22.8341 C   0  0  0  0  0  0  0  0  0  0  0  0
   21.0063   21.1350   23.0851 H   0  0  0  0  0  0  0  0  0  0  0  0
   19.7150   21.4234   21.9058 H   0  0  0  0  0  0  0  0  0  0  0  0
   19.8080   19.3856   22.6376 C   0  0  0  0  0  0  0  0  0  0  0  0
   20.0465   18.8760   23.5797 H   0  0  0  0  0  0  0  0  0  0  0  0
   18.7604   19.1564   22.4014 H   0  0  0  0  0  0  0  0  0  0  0  0
   20.7234   18.8644   21.5047 C   0  0  0  0  0  0  0  0  0  0  0  0
   21.7750   19.0524   21.7624 H   0  0  0  0  0  0  0  0  0  0  0  0
   20.5227   19.4389   20.5897 H   0  0  0  0  0  0  0  0  0  0  0  0
   20.5275   17.3603   21.1946 C   0  0  0  0  0  0  0  0  0  0  0  0
   19.4820   17.1718   20.9130 H   0  0  0  0  0  0  0  0  0  0  0  0
   21.1337   17.0996   20.3157 H   0  0  0  0  0  0  0  0  0  0  0  0
   20.9254   16.4340   22.3664 C   0  0  0  0  0  0  0  0  0  0  0  0
   20.2665   16.5728   23.2324 H   0  0  0  0  0  0  0  0  0  0  0  0
   20.8548   15.3810   22.0645 H   0  0  0  0  0  0  0  0  0  0  0  0
   21.9585   16.6225   22.6859 H   0  0  0  0  0  0  0  0  0  0  0  0
  1  2  1  0  0  0  0
  1  3  1  0  0  0  0
  1  4  1  0  0  0  0
  1  5  1  0  0  0  0
  5  6  1  0  0  0  0
  5  7  1  0  0  0  0
  5  8  1  0  0  0  0
  8  9  1  0  0  0  0
  8 10  1  0  0  0  0
  8 11  1  0  0  0  0
 11 12  1  0  0  0  0
 11 13  1  0  0  0  0
 11 14  1  0  0  0  0
 14 15  1  0  0  0  0
 14 16  1  0  0  0  0
 14 17  1  0  0  0  0
 17 18  1  0  0  0  0
 17 19  1  0  0  0  0
 17 20  1  0  0  0  0
M  END
> <VConfSearch Rank>
387

> <Conf_Id>
41

> <Delta U+W>
0.515

> <U+W>
-11.263

> <U>
46.486

> <W>
-57.749

> <W(PB)>
-59.685

> <W(SA)>
1.936

> <Valence>
1.806

> <Coulomb>
44.248

> <VdW>
0.433

> <VdW6>
-4.089

> <VdW12>
4.522

> <Bond>
0.131

> <Angle>
0.628

> <Pdih>
1.047

> <Idih>
0.000

> <Tether>
0.000

$$$$
VeraChem MOL file


 20 19  0  0  0  0  0  0  0  0999 V2000     
   18.9499   21.0456   20.8695 N   0  3  0  0  0  0  0  0  0  0  0  0
   18.9905   21.7714   20.1463 H   0  0  0  0  0  0  0  0  0  0  0  0
   18.6902   20.1725   20.4013 H   0  0  0  0  0  0  0  0  0  0  0  0
   18.1787   21.2937   21.4972 H   0  0  0  0  0  0  0  0  0  0  0  0
   20.2653   20.9184   21.6135 C   0  0  0  0  0  0  0  0  0  0  0  0
   20.4957   21.8956   22.0468 H   0  0  0  0  0  0  0  0  0  0  0  0
   21.0453   20.6769   20.8864 H   0  0  0  0  0  0  0  0  0  0  0  0
   20.2511   19.8566   22.7308 C   0  0  0  0  0  0  0  0  0  0  0  0
   21.1996   19.9278   23.2774 H   0  0  0  0  0  0  0  0  0  0  0  0
   19.4555   20.0922   23.4500 H   0  0  0  0  0  0  0  0  0  0  0  0
   20.0670   18.4175   22.1865 C   0  0  0  0  0  0  0  0  0  0  0  0
   20.8791   18.1808   21.4852 H   0  0  0  0  0  0  0  0  0  0  0  0
   19.1345   18.3614   21.6096 H   0  0  0  0  0  0  0  0  0  0  0  0
   20.0132   17.3405   23.2974 C   0  0  0  0  0  0  0  0  0  0  0  0
   19.1935   17.5654   23.9941 H   0  0  0  0  0  0  0  0  0  0  0  0
   19.7681   16.3727   22.8378 H   0  0  0  0  0  0  0  0  0  0  0  0
   21.3377   17.1965   24.0815 C   0  0  0  0  0  0  0  0  0  0  0  0
   21.5642   18.0994   24.6618 H   0  0  0  0  0  0  0  0  0  0  0  0
   21.2763   16.3586   24.7880 H   0  0  0  0  0  0  0  0  0  0  0  0
   22.1791   17.0022   23.4039 H   0  0  0  0  0  0  0  0  0  0  0  0
  1  2  1  0  0  0  0
  1  3  1  0  0  0  0
  1  4  1  0  0  0  0
  1  5  1  0  0  0  0
  5  6  1  0  0  0  0
  5  7  1  0  0  0  0
  5  8  1  0  0  0  0
  8  9  1  0  0  0  0
  8 10  1  0  0  0  0
  8 11  1  0  0  0  0
 11 12  1  0  0  0  0
 11 13  1  0  0  0  0
 11 14  1  0  0  0  0
 14 15  1  0  0  0  0
 14 16  1  0  0  0  0
 14 17  1  0  0  0  0
 17 18  1  0  0  0  0
 17 19  1  0  0  0  0
 17 20  1  0  0  0  0
M  END
> <VConfSearch Rank>
388

> <Conf_Id>
33

> <Delta U+W>
0.703

> <U+W>
-11.075

> <U>
47.080

> <W>
-58.154

> <W(PB)>
-60.053

> <W(SA)>
1.899

> <Valence>
1.943

> <Coulomb>
44.572

> <VdW>
0.565

> <VdW6>
-4.575

> <VdW12>
5.139

> <Bond>
0.158

> <Angle>
0.700

> <Pdih>
1.085

> <Idih>
0.000

> <Tether>
0.000

$$$$
VeraChem MOL file


 20 19  0  0  0  0  0  0  0  0999 V2000     
   19.1142   20.7884   24.4174 N   0  3  0  0  0  0  0  0  0  0  0  0
   18.8372   21.7142   24.7604 H   0  0  0  0  0  0  0  0  0  0  0  0
   18.5084   20.1051   24.8825 H   0  0  0  0  0  0  0  0  0  0  0  0
   20.0689   20.6213   24.7484 H   0  0  0  0  0  0  0  0  0  0  0  0
   19.0152   20.6952   22.9069 C   0  0  0  0  0  0  0  0  0  0  0  0
   19.6642   21.4621   22.4756 H   0  0  0  0  0  0  0  0  0  0  0  0
   17.9836   20.9275   22.6285 H   0  0  0  0  0  0  0  0  0  0  0  0
   19.3969   19.3138   22.3397 C   0  0  0  0  0  0  0  0  0  0  0  0
   18.7551   18.5437   22.7877 H   0  0  0  0  0  0  0  0  0  0  0  0
   19.1791   19.3175   21.2645 H   0  0  0  0  0  0  0  0  0  0  0  0
   20.8885   18.9633   22.5707 C   0  0  0  0  0  0  0  0  0  0  0  0
   21.1096   18.9967   23.6457 H   0  0  0  0  0  0  0  0  0  0  0  0
   21.5247   19.7260   22.1005 H   0  0  0  0  0  0  0  0  0  0  0  0
   21.2822   17.5632   22.0400 C   0  0  0  0  0  0  0  0  0  0  0  0
   22.3166   17.3497   22.3437 H   0  0  0  0  0  0  0  0  0  0  0  0
   20.6577   16.7952   22.5176 H   0  0  0  0  0  0  0  0  0  0  0  0
   21.1796   17.4350   20.5028 C   0  0  0  0  0  0  0  0  0  0  0  0
   21.7707   18.2121   20.0010 H   0  0  0  0  0  0  0  0  0  0  0  0
   21.5598   16.4596   20.1728 H   0  0  0  0  0  0  0  0  0  0  0  0
   20.1412   17.5163   20.1588 H   0  0  0  0  0  0  0  0  0  0  0  0
  1  2  1  0  0  0  0
  1  3  1  0  0  0  0
  1  4  1  0  0  0  0
  1  5  1  0  0  0  0
  5  6  1  0  0  0  0
  5  7  1  0  0  0  0
  5  8  1  0  0  0  0
  8  9  1  0  0  0  0
  8 10  1  0  0  0  0
  8 11  1  0  0  0  0
 11 12  1  0  0  0  0
 11 13  1  0  0  0  0
 11 14  1  0  0  0  0
 14 15  1  0  0  0  0
 14 16  1  0  0  0  0
 14 17  1  0  0  0  0
 17 18  1  0  0  0  0
 17 19  1  0  0  0  0
 17 20  1  0  0  0  0
M  END
> <VConfSearch Rank>
389

> <Conf_Id>
24

> <Delta U+W>
0.847

> <U+W>
-10.931

> <U>
47.080

> <W>
-58.011

> <W(PB)>
-59.914

> <W(SA)>
1.903

> <Valence>
1.943

> <Coulomb>
44.572

> <VdW>
0.565

> <VdW6>
-4.575

> <VdW12>
5.140

> <Bond>
0.158

> <Angle>
0.700

> <Pdih>
1.085

> <Idih>
0.000

> <Tether>
0.000

$$$$
VeraChem MOL file


 20 19  0  0  0  0  0  0  0  0999 V2000     
   20.9152   17.1693   24.1553 N   0  3  0  0  0  0  0  0  0  0  0  0
   20.8639   16.1625   23.9672 H   0  0  0  0  0  0  0  0  0  0  0  0
   21.9000   17.4386   24.0660 H   0  0  0  0  0  0  0  0  0  0  0  0
   20.6546   17.3015   25.1375 H   0  0  0  0  0  0  0  0  0  0  0  0
   20.0239   17.9628   23.2213 C   0  0  0  0  0  0  0  0  0  0  0  0
   18.9984   17.6052   23.3477 H   0  0  0  0  0  0  0  0  0  0  0  0
   20.3383   17.7505   22.1961 H   0  0  0  0  0  0  0  0  0  0  0  0
   20.0783   19.4807   23.4770 C   0  0  0  0  0  0  0  0  0  0  0  0
   19.8009   19.6791   24.5208 H   0  0  0  0  0  0  0  0  0  0  0  0
   21.1089   19.8391   23.3594 H   0  0  0  0  0  0  0  0  0  0  0  0
   19.1302   20.2795   22.5480 C   0  0  0  0  0  0  0  0  0  0  0  0
   19.2099   21.3480   22.7913 H   0  0  0  0  0  0  0  0  0  0  0  0
   18.0918   19.9961   22.7695 H   0  0  0  0  0  0  0  0  0  0  0  0
   19.3878   20.0843   21.0319 C   0  0  0  0  0  0  0  0  0  0  0  0
   19.2091   19.0382   20.7480 H   0  0  0  0  0  0  0  0  0  0  0  0
   18.6513   20.6778   20.4723 H   0  0  0  0  0  0  0  0  0  0  0  0
   20.8072   20.5076   20.5901 C   0  0  0  0  0  0  0  0  0  0  0  0
   20.9070   20.4382   19.4992 H   0  0  0  0  0  0  0  0  0  0  0  0
   21.0184   21.5447   20.8811 H   0  0  0  0  0  0  0  0  0  0  0  0
   21.5760   19.8623   21.0331 H   0  0  0  0  0  0  0  0  0  0  0  0
  1  2  1  0  0  0  0
  1  3  1  0  0  0  0
  1  4  1  0  0  0  0
  1  5  1  0  0  0  0
  5  6  1  0  0  0  0
  5  7  1  0  0  0  0
  5  8  1  0  0  0  0
  8  9  1  0  0  0  0
  8 10  1  0  0  0  0
  8 11  1  0  0  0  0
 11 12  1  0  0  0  0
 11 13  1  0  0  0  0
 11 14  1  0  0  0  0
 14 15  1  0  0  0  0
 14 16  1  0  0  0  0
 14 17  1  0  0  0  0
 17 18  1  0  0  0  0
 17 19  1  0  0  0  0
 17 20  1  0  0  0  0
M  END
> <VConfSearch Rank>
390

> <Conf_Id>
64

> <Delta U+W>
0.707

> <U+W>
-11.070

> <U>
47.077

> <W>
-58.148

> <W(PB)>
-60.054

> <W(SA)>
1.906

> <Valence>
2.039

> <Coulomb>
44.655

> <VdW>
0.383

> <VdW6>
-4.912

> <VdW12>
5.295

> <Bond>
0.159

> <Angle>
0.856

> <Pdih>
1.024

> <Idih>
0.000

> <Tether>
0.000

$$$$
VeraChem MOL file


 20 19  0  0  0  0  0  0  0  0999 V2000     
   19.7810   17.7676   20.1065 N   0  3  0  0  0  0  0  0  0  0  0  0
   19.3006   16.8665   20.1934 H   0  0  0  0  0  0  0  0  0  0  0  0
   19.0777   18.4579   19.8252 H   0  0  0  0  0  0  0  0  0  0  0  0
   20.4398   17.6790   19.3257 H   0  0  0  0  0  0  0  0  0  0  0  0
   20.4803   18.1626   21.3914 C   0  0  0  0  0  0  0  0  0  0  0  0
   20.9931   19.1121   21.2165 H   0  0  0  0  0  0  0  0  0  0  0  0
   21.2327   17.4014   21.6147 H   0  0  0  0  0  0  0  0  0  0  0  0
   19.5176   18.3050   22.5854 C   0  0  0  0  0  0  0  0  0  0  0  0
   18.7565   19.0625   22.3587 H   0  0  0  0  0  0  0  0  0  0  0  0
   18.9779   17.3592   22.7261 H   0  0  0  0  0  0  0  0  0  0  0  0
   20.2469   18.6648   23.9040 C   0  0  0  0  0  0  0  0  0  0  0  0
   20.9135   17.8360   24.1803 H   0  0  0  0  0  0  0  0  0  0  0  0
   19.5061   18.7387   24.7121 H   0  0  0  0  0  0  0  0  0  0  0  0
   21.0744   19.9747   23.8537 C   0  0  0  0  0  0  0  0  0  0  0  0
   21.5597   20.1201   24.8290 H   0  0  0  0  0  0  0  0  0  0  0  0
   21.8895   19.8811   23.1232 H   0  0  0  0  0  0  0  0  0  0  0  0
   20.2263   21.2253   23.5285 C   0  0  0  0  0  0  0  0  0  0  0  0
   19.3911   21.3302   24.2332 H   0  0  0  0  0  0  0  0  0  0  0  0
   20.8388   22.1336   23.5967 H   0  0  0  0  0  0  0  0  0  0  0  0
   19.8156   21.1803   22.5122 H   0  0  0  0  0  0  0  0  0  0  0  0
  1  2  1  0  0  0  0
  1  3  1  0  0  0  0
  1  4  1  0  0  0  0
  1  5  1  0  0  0  0
  5  6  1  0  0  0  0
  5  7  1  0  0  0  0
  5  8  1  0  0  0  0
  8  9  1  0  0  0  0
  8 10  1  0  0  0  0
  8 11  1  0  0  0  0
 11 12  1  0  0  0  0
 11 13  1  0  0  0  0
 11 14  1  0  0  0  0
 14 15  1  0  0  0  0
 14 16  1  0  0  0  0
 14 17  1  0  0  0  0
 17 18  1  0  0  0  0
 17 19  1  0  0  0  0
 17 20  1  0  0  0  0
M  END
> <VConfSearch Rank>
391

> <Conf_Id>
22

> <Delta U+W>
0.731

> <U+W>
-11.047

> <U>
47.078

> <W>
-58.125

> <W(PB)>
-60.031

> <W(SA)>
1.906

> <Valence>
2.039

> <Coulomb>
44.655

> <VdW>
0.383

> <VdW6>
-4.913

> <VdW12>
5.296

> <Bond>
0.159

> <Angle>
0.856

> <Pdih>
1.024

> <Idih>
0.000

> <Tether>
0.000

$$$$
VeraChem MOL file


 20 19  0  0  0  0  0  0  0  0999 V2000     
   19.2809   21.3683   23.9414 N   0  3  0  0  0  0  0  0  0  0  0  0
   20.1271   21.6481   24.4474 H   0  0  0  0  0  0  0  0  0  0  0  0
   19.0091   22.1592   23.3489 H   0  0  0  0  0  0  0  0  0  0  0  0
   18.5403   21.2531   24.6411 H   0  0  0  0  0  0  0  0  0  0  0  0
   19.4955   20.1036   23.1345 C   0  0  0  0  0  0  0  0  0  0  0  0
   18.5510   19.8496   22.6458 H   0  0  0  0  0  0  0  0  0  0  0  0
   19.7517   19.3040   23.8332 H   0  0  0  0  0  0  0  0  0  0  0  0
   20.6060   20.2423   22.0779 C   0  0  0  0  0  0  0  0  0  0  0  0
   20.3951   21.1237   21.4577 H   0  0  0  0  0  0  0  0  0  0  0  0
   21.5640   20.4373   22.5779 H   0  0  0  0  0  0  0  0  0  0  0  0
   20.7458   19.0104   21.1479 C   0  0  0  0  0  0  0  0  0  0  0  0
   21.4970   19.2569   20.3848 H   0  0  0  0  0  0  0  0  0  0  0  0
   19.8092   18.8422   20.5985 H   0  0  0  0  0  0  0  0  0  0  0  0
   21.1929   17.7050   21.8559 C   0  0  0  0  0  0  0  0  0  0  0  0
   21.7349   17.0860   21.1272 H   0  0  0  0  0  0  0  0  0  0  0  0
   21.9137   17.9317   22.6540 H   0  0  0  0  0  0  0  0  0  0  0  0
   20.0223   16.8618   22.4139 C   0  0  0  0  0  0  0  0  0  0  0  0
   19.4841   17.3770   23.2163 H   0  0  0  0  0  0  0  0  0  0  0  0
   19.3017   16.6165   21.6230 H   0  0  0  0  0  0  0  0  0  0  0  0
   20.3963   15.9158   22.8264 H   0  0  0  0  0  0  0  0  0  0  0  0
  1  2  1  0  0  0  0
  1  3  1  0  0  0  0
  1  4  1  0  0  0  0
  1  5  1  0  0  0  0
  5  6  1  0  0  0  0
  5  7  1  0  0  0  0
  5  8  1  0  0  0  0
  8  9  1  0  0  0  0
  8 10  1  0  0  0  0
  8 11  1  0  0  0  0
 11 12  1  0  0  0  0
 11 13  1  0  0  0  0
 11 14  1  0  0  0  0
 14 15  1  0  0  0  0
 14 16  1  0  0  0  0
 14 17  1  0  0  0  0
 17 18  1  0  0  0  0
 17 19  1  0  0  0  0
 17 20  1  0  0  0  0
M  END
> <VConfSearch Rank>
392

> <Conf_Id>
61

> <Delta U+W>
2.669

> <U+W>
-9.108

> <U>
48.916

> <W>
-58.025

> <W(PB)>
-59.935

> <W(SA)>
1.911

> <Valence>
3.785

> <Coulomb>
44.716

> <VdW>
0.415

> <VdW6>
-4.836

> <VdW12>
5.251

> <Bond>
0.175

> <Angle>
1.195

> <Pdih>
2.415

> <Idih>
0.000

> <Tether>
0.000

$$$$
VeraChem MOL file


 20 19  0  0  0  0  0  0  0  0999 V2000     
   22.0229   20.3230   22.7044 N   0  3  0  0  0  0  0  0  0  0  0  0
   22.6014   20.8265   23.3852 H   0  0  0  0  0  0  0  0  0  0  0  0
   22.4126   20.5241   21.7781 H   0  0  0  0  0  0  0  0  0  0  0  0
   21.0892   20.7404   22.7363 H   0  0  0  0  0  0  0  0  0  0  0  0
   21.9885   18.8336   22.9890 C   0  0  0  0  0  0  0  0  0  0  0  0
   21.6203   18.6815   24.0071 H   0  0  0  0  0  0  0  0  0  0  0  0
   23.0216   18.4779   22.9467 H   0  0  0  0  0  0  0  0  0  0  0  0
   21.1363   18.0156   21.9960 C   0  0  0  0  0  0  0  0  0  0  0  0
   21.3153   18.3640   20.9701 H   0  0  0  0  0  0  0  0  0  0  0  0
   21.4925   16.9773   22.0272 H   0  0  0  0  0  0  0  0  0  0  0  0
   19.6172   18.0054   22.3060 C   0  0  0  0  0  0  0  0  0  0  0  0
   19.4520   17.5996   23.3137 H   0  0  0  0  0  0  0  0  0  0  0  0
   19.1316   17.3055   21.6118 H   0  0  0  0  0  0  0  0  0  0  0  0
   18.9289   19.3853   22.1863 C   0  0  0  0  0  0  0  0  0  0  0  0
   19.2941   20.0572   22.9730 H   0  0  0  0  0  0  0  0  0  0  0  0
   19.1791   19.8453   21.2200 H   0  0  0  0  0  0  0  0  0  0  0  0
   17.3949   19.2682   22.3134 C   0  0  0  0  0  0  0  0  0  0  0  0
   16.9227   20.2562   22.2361 H   0  0  0  0  0  0  0  0  0  0  0  0
   16.9793   18.6343   21.5192 H   0  0  0  0  0  0  0  0  0  0  0  0
   17.1108   18.8341   23.2809 H   0  0  0  0  0  0  0  0  0  0  0  0
  1  2  1  0  0  0  0
  1  3  1  0  0  0  0
  1  4  1  0  0  0  0
  1  5  1  0  0  0  0
  5  6  1  0  0  0  0
  5  7  1  0  0  0  0
  5  8  1  0  0  0  0
  8  9  1  0  0  0  0
  8 10  1  0  0  0  0
  8 11  1  0  0  0  0
 11 12  1  0  0  0  0
 11 13  1  0  0  0  0
 11 14  1  0  0  0  0
 14 15  1  0  0  0  0
 14 16  1  0  0  0  0
 14 17  1  0  0  0  0
 17 18  1  0  0  0  0
 17 19  1  0  0  0  0
 17 20  1  0  0  0  0
M  END
> <VConfSearch Rank>
393

> <Conf_Id>
69

> <Delta U+W>
2.811

> <U+W>
-8.967

> <U>
49.216

> <W>
-58.183

> <W(PB)>
-60.064

> <W(SA)>
1.881

> <Valence>
2.929

> <Coulomb>
46.006

> <VdW>
0.281

> <VdW6>
-4.909

> <VdW12>
5.190

> <Bond>
0.156

> <Angle>
0.974

> <Pdih>
1.799

> <Idih>
0.000

> <Tether>
0.000

$$$$
VeraChem MOL file


 20 19  0  0  0  0  0  0  0  0999 V2000     
   20.9641   21.1912   23.0499 N   0  3  0  0  0  0  0  0  0  0  0  0
   20.6750   21.0123   22.0848 H   0  0  0  0  0  0  0  0  0  0  0  0
   20.2211   21.7422   23.4911 H   0  0  0  0  0  0  0  0  0  0  0  0
   21.7944   21.7918   23.0092 H   0  0  0  0  0  0  0  0  0  0  0  0
   21.2372   19.9061   23.8078 C   0  0  0  0  0  0  0  0  0  0  0  0
   21.5494   20.1918   24.8160 H   0  0  0  0  0  0  0  0  0  0  0  0
   22.0734   19.3897   23.3289 H   0  0  0  0  0  0  0  0  0  0  0  0
   20.0244   18.9573   23.9093 C   0  0  0  0  0  0  0  0  0  0  0  0
   20.1855   18.3015   24.7753 H   0  0  0  0  0  0  0  0  0  0  0  0
   19.1150   19.5311   24.1318 H   0  0  0  0  0  0  0  0  0  0  0  0
   19.8046   18.0565   22.6667 C   0  0  0  0  0  0  0  0  0  0  0  0
   18.9953   17.3495   22.8961 H   0  0  0  0  0  0  0  0  0  0  0  0
   20.7023   17.4470   22.4930 H   0  0  0  0  0  0  0  0  0  0  0  0
   19.4447   18.8246   21.3733 C   0  0  0  0  0  0  0  0  0  0  0  0
   18.6141   19.5173   21.5687 H   0  0  0  0  0  0  0  0  0  0  0  0
   20.3009   19.4255   21.0421 H   0  0  0  0  0  0  0  0  0  0  0  0
   19.0490   17.8627   20.2326 C   0  0  0  0  0  0  0  0  0  0  0  0
   18.1684   17.2665   20.5052 H   0  0  0  0  0  0  0  0  0  0  0  0
   18.8061   18.4225   19.3200 H   0  0  0  0  0  0  0  0  0  0  0  0
   19.8691   17.1724   19.9958 H   0  0  0  0  0  0  0  0  0  0  0  0
  1  2  1  0  0  0  0
  1  3  1  0  0  0  0
  1  4  1  0  0  0  0
  1  5  1  0  0  0  0
  5  6  1  0  0  0  0
  5  7  1  0  0  0  0
  5  8  1  0  0  0  0
  8  9  1  0  0  0  0
  8 10  1  0  0  0  0
  8 11  1  0  0  0  0
 11 12  1  0  0  0  0
 11 13  1  0  0  0  0
 11 14  1  0  0  0  0
 14 15  1  0  0  0  0
 14 16  1  0  0  0  0
 14 17  1  0  0  0  0
 17 18  1  0  0  0  0
 17 19  1  0  0  0  0
 17 20  1  0  0  0  0
M  END
> <VConfSearch Rank>
394

> <Conf_Id>
26

> <Delta U+W>
2.809

> <U+W>
-8.969

> <U>
49.216

> <W>
-58.185

> <W(PB)>
-60.088

> <W(SA)>
1.903

> <Valence>
2.929

> <Coulomb>
46.006

> <VdW>
0.281

> <VdW6>
-4.909

> <VdW12>
5.190

> <Bond>
0.156

> <Angle>
0.974

> <Pdih>
1.799

> <Idih>
0.000

> <Tether>
0.000

$$$$
VeraChem MOL file


 20 19  0  0  0  0  0  0  0  0999 V2000     
   21.5975   18.6158   24.3045 N   0  3  0  0  0  0  0  0  0  0  0  0
   20.9841   19.3701   24.6263 H   0  0  0  0  0  0  0  0  0  0  0  0
   21.3650   17.7818   24.8528 H   0  0  0  0  0  0  0  0  0  0  0  0
   22.5560   18.8800   24.5551 H   0  0  0  0  0  0  0  0  0  0  0  0
   21.4512   18.3703   22.8155 C   0  0  0  0  0  0  0  0  0  0  0  0
   22.1530   17.5792   22.5378 H   0  0  0  0  0  0  0  0  0  0  0  0
   21.7442   19.2830   22.2901 H   0  0  0  0  0  0  0  0  0  0  0  0
   20.0257   17.9616   22.3919 C   0  0  0  0  0  0  0  0  0  0  0  0
   20.0281   17.7305   21.3190 H   0  0  0  0  0  0  0  0  0  0  0  0
   19.7546   17.0262   22.8990 H   0  0  0  0  0  0  0  0  0  0  0  0
   18.9468   19.0356   22.6909 C   0  0  0  0  0  0  0  0  0  0  0  0
   18.8341   19.1448   23.7779 H   0  0  0  0  0  0  0  0  0  0  0  0
   17.9759   18.6721   22.3271 H   0  0  0  0  0  0  0  0  0  0  0  0
   19.2276   20.4291   22.0727 C   0  0  0  0  0  0  0  0  0  0  0  0
   18.4171   21.1118   22.3641 H   0  0  0  0  0  0  0  0  0  0  0  0
   20.1472   20.8550   22.4963 H   0  0  0  0  0  0  0  0  0  0  0  0
   19.3286   20.4065   20.5306 C   0  0  0  0  0  0  0  0  0  0  0  0
   18.4271   19.9693   20.0822 H   0  0  0  0  0  0  0  0  0  0  0  0
   19.4385   21.4255   20.1374 H   0  0  0  0  0  0  0  0  0  0  0  0
   20.1967   19.8272   20.1923 H   0  0  0  0  0  0  0  0  0  0  0  0
  1  2  1  0  0  0  0
  1  3  1  0  0  0  0
  1  4  1  0  0  0  0
  1  5  1  0  0  0  0
  5  6  1  0  0  0  0
  5  7  1  0  0  0  0
  5  8  1  0  0  0  0
  8  9  1  0  0  0  0
  8 10  1  0  0  0  0
  8 11  1  0  0  0  0
 11 12  1  0  0  0  0
 11 13  1  0  0  0  0
 11 14  1  0  0  0  0
 14 15  1  0  0  0  0
 14 16  1  0  0  0  0
 14 17  1  0  0  0  0
 17 18  1  0  0  0  0
 17 19  1  0  0  0  0
 17 20  1  0  0  0  0
M  END
> <VConfSearch Rank>
395

> <Conf_Id>
2

> <Delta U+W>
0.994

> <U+W>
-10.784

> <U>
47.562

> <W>
-58.346

> <W(PB)>
-60.221

> <W(SA)>
1.875

> <Valence>
2.149

> <Coulomb>
45.034

> <VdW>
0.378

> <VdW6>
-5.599

> <VdW12>
5.977

> <Bond>
0.185

> <Angle>
0.935

> <Pdih>
1.028

> <Idih>
0.000

> <Tether>
0.000

$$$$
VeraChem MOL file


 20 19  0  0  0  0  0  0  0  0999 V2000     
   20.5752   19.3066   20.0879 N   0  3  0  0  0  0  0  0  0  0  0  0
   21.2470   20.0216   19.7920 H   0  0  0  0  0  0  0  0  0  0  0  0
   21.1156   18.4985   20.4101 H   0  0  0  0  0  0  0  0  0  0  0  0
   20.0643   19.0118   19.2493 H   0  0  0  0  0  0  0  0  0  0  0  0
   19.6410   19.8223   21.1651 C   0  0  0  0  0  0  0  0  0  0  0  0
   18.9330   19.0264   21.4107 H   0  0  0  0  0  0  0  0  0  0  0  0
   19.0774   20.6594   20.7443 H   0  0  0  0  0  0  0  0  0  0  0  0
   20.3665   20.2856   22.4447 C   0  0  0  0  0  0  0  0  0  0  0  0
   21.0496   21.1075   22.1928 H   0  0  0  0  0  0  0  0  0  0  0  0
   19.6278   20.7117   23.1356 H   0  0  0  0  0  0  0  0  0  0  0  0
   21.1616   19.1621   23.1606 C   0  0  0  0  0  0  0  0  0  0  0  0
   21.6136   19.5752   24.0729 H   0  0  0  0  0  0  0  0  0  0  0  0
   22.0032   18.8520   22.5268 H   0  0  0  0  0  0  0  0  0  0  0  0
   20.3262   17.9107   23.5337 C   0  0  0  0  0  0  0  0  0  0  0  0
   19.9432   17.4246   22.6263 H   0  0  0  0  0  0  0  0  0  0  0  0
   20.9893   17.1764   24.0122 H   0  0  0  0  0  0  0  0  0  0  0  0
   19.1531   18.2199   24.4913 C   0  0  0  0  0  0  0  0  0  0  0  0
   18.4023   18.8621   24.0142 H   0  0  0  0  0  0  0  0  0  0  0  0
   18.6496   17.2929   24.7945 H   0  0  0  0  0  0  0  0  0  0  0  0
   19.5076   18.7220   25.4008 H   0  0  0  0  0  0  0  0  0  0  0  0
  1  2  1  0  0  0  0
  1  3  1  0  0  0  0
  1  4  1  0  0  0  0
  1  5  1  0  0  0  0
  5  6  1  0  0  0  0
  5  7  1  0  0  0  0
  5  8  1  0  0  0  0
  8  9  1  0  0  0  0
  8 10  1  0  0  0  0
  8 11  1  0  0  0  0
 11 12  1  0  0  0  0
 11 13  1  0  0  0  0
 11 14  1  0  0  0  0
 14 15  1  0  0  0  0
 14 16  1  0  0  0  0
 14 17  1  0  0  0  0
 17 18  1  0  0  0  0
 17 19  1  0  0  0  0
 17 20  1  0  0  0  0
M  END
> <VConfSearch Rank>
396

> <Conf_Id>
1

> <Delta U+W>
1.032

> <U+W>
-10.746

> <U>
47.562

> <W>
-58.308

> <W(PB)>
-60.184

> <W(SA)>
1.877

> <Valence>
2.149

> <Coulomb>
45.035

> <VdW>
0.378

> <VdW6>
-5.599

> <VdW12>
5.978

> <Bond>
0.185

> <Angle>
0.935

> <Pdih>
1.028

> <Idih>
0.000

> <Tether>
0.000

$$$$
VeraChem MOL file


 20 19  0  0  0  0  0  0  0  0999 V2000     
   21.6022   18.5749   20.6715 N   0  3  0  0  0  0  0  0  0  0  0  0
   21.2674   17.8870   19.9898 H   0  0  0  0  0  0  0  0  0  0  0  0
   21.1327   19.4609   20.4632 H   0  0  0  0  0  0  0  0  0  0  0  0
   22.6011   18.7151   20.4874 H   0  0  0  0  0  0  0  0  0  0  0  0
   21.3502   18.1251   22.0976 C   0  0  0  0  0  0  0  0  0  0  0  0
   21.7568   18.8852   22.7666 H   0  0  0  0  0  0  0  0  0  0  0  0
   21.9145   17.2020   22.2554 H   0  0  0  0  0  0  0  0  0  0  0  0
   19.8618   17.8689   22.4169 C   0  0  0  0  0  0  0  0  0  0  0  0
   19.4898   17.1082   21.7178 H   0  0  0  0  0  0  0  0  0  0  0  0
   19.7758   17.4248   23.4174 H   0  0  0  0  0  0  0  0  0  0  0  0
   18.9521   19.1235   22.3243 C   0  0  0  0  0  0  0  0  0  0  0  0
   17.9228   18.7805   22.1502 H   0  0  0  0  0  0  0  0  0  0  0  0
   19.2116   19.7262   21.4445 H   0  0  0  0  0  0  0  0  0  0  0  0
   18.9342   20.0167   23.5916 C   0  0  0  0  0  0  0  0  0  0  0  0
   18.1912   20.8125   23.4415 H   0  0  0  0  0  0  0  0  0  0  0  0
   18.5811   19.4318   24.4524 H   0  0  0  0  0  0  0  0  0  0  0  0
   20.2903   20.6709   23.9366 C   0  0  0  0  0  0  0  0  0  0  0  0
   20.7272   21.1690   23.0616 H   0  0  0  0  0  0  0  0  0  0  0  0
   20.1607   21.4265   24.7223 H   0  0  0  0  0  0  0  0  0  0  0  0
   21.0058   19.9314   24.3153 H   0  0  0  0  0  0  0  0  0  0  0  0
  1  2  1  0  0  0  0
  1  3  1  0  0  0  0
  1  4  1  0  0  0  0
  1  5  1  0  0  0  0
  5  6  1  0  0  0  0
  5  7  1  0  0  0  0
  5  8  1  0  0  0  0
  8  9  1  0  0  0  0
  8 10  1  0  0  0  0
  8 11  1  0  0  0  0
 11 12  1  0  0  0  0
 11 13  1  0  0  0  0
 11 14  1  0  0  0  0
 14 15  1  0  0  0  0
 14 16  1  0  0  0  0
 14 17  1  0  0  0  0
 17 18  1  0  0  0  0
 17 19  1  0  0  0  0
 17 20  1  0  0  0  0
M  END
> <VConfSearch Rank>
397

> <Conf_Id>
80

> <Delta U+W>
2.920

> <U+W>
-8.857

> <U>
49.434

> <W>
-58.292

> <W(PB)>
-60.170

> <W(SA)>
1.879

> <Valence>
3.798

> <Coulomb>
45.253

> <VdW>
0.384

> <VdW6>
-5.595

> <VdW12>
5.979

> <Bond>
0.198

> <Angle>
1.368

> <Pdih>
2.231

> <Idih>
0.000

> <Tether>
0.000

$$$$
VeraChem MOL file


 20 19  0  0  0  0  0  0  0  0999 V2000     
   18.7038   17.5239   23.1250 N   0  3  0  0  0  0  0  0  0  0  0  0
   18.5947   17.3135   24.1220 H   0  0  0  0  0  0  0  0  0  0  0  0
   17.9335   17.0562   22.6358 H   0  0  0  0  0  0  0  0  0  0  0  0
   19.5708   17.0764   22.8141 H   0  0  0  0  0  0  0  0  0  0  0  0
   18.7141   19.0172   22.8611 C   0  0  0  0  0  0  0  0  0  0  0  0
   17.7457   19.4134   23.1783 H   0  0  0  0  0  0  0  0  0  0  0  0
   18.8013   19.1676   21.7839 H   0  0  0  0  0  0  0  0  0  0  0  0
   19.8373   19.7736   23.6019 C   0  0  0  0  0  0  0  0  0  0  0  0
   19.6990   20.8544   23.4659 H   0  0  0  0  0  0  0  0  0  0  0  0
   19.7197   19.5890   24.6780 H   0  0  0  0  0  0  0  0  0  0  0  0
   21.2772   19.3759   23.1790 C   0  0  0  0  0  0  0  0  0  0  0  0
   21.3587   18.2881   23.0574 H   0  0  0  0  0  0  0  0  0  0  0  0
   21.9531   19.6287   24.0076 H   0  0  0  0  0  0  0  0  0  0  0  0
   21.8108   20.0919   21.9114 C   0  0  0  0  0  0  0  0  0  0  0  0
   21.8170   21.1787   22.0746 H   0  0  0  0  0  0  0  0  0  0  0  0
   22.8611   19.8016   21.7684 H   0  0  0  0  0  0  0  0  0  0  0  0
   21.0328   19.7714   20.6160 C   0  0  0  0  0  0  0  0  0  0  0  0
   20.0428   20.2424   20.6177 H   0  0  0  0  0  0  0  0  0  0  0  0
   21.5724   20.1572   19.7414 H   0  0  0  0  0  0  0  0  0  0  0  0
   20.9087   18.6891   20.4824 H   0  0  0  0  0  0  0  0  0  0  0  0
  1  2  1  0  0  0  0
  1  3  1  0  0  0  0
  1  4  1  0  0  0  0
  1  5  1  0  0  0  0
  5  6  1  0  0  0  0
  5  7  1  0  0  0  0
  5  8  1  0  0  0  0
  8  9  1  0  0  0  0
  8 10  1  0  0  0  0
  8 11  1  0  0  0  0
 11 12  1  0  0  0  0
 11 13  1  0  0  0  0
 11 14  1  0  0  0  0
 14 15  1  0  0  0  0
 14 16  1  0  0  0  0
 14 17  1  0  0  0  0
 17 18  1  0  0  0  0
 17 19  1  0  0  0  0
 17 20  1  0  0  0  0
M  END
> <VConfSearch Rank>
398

> <Conf_Id>
65

> <Delta U+W>
2.949

> <U+W>
-8.829

> <U>
49.435

> <W>
-58.263

> <W(PB)>
-60.125

> <W(SA)>
1.862

> <Valence>
3.797

> <Coulomb>
45.253

> <VdW>
0.384

> <VdW6>
-5.596

> <VdW12>
5.980

> <Bond>
0.198

> <Angle>
1.369

> <Pdih>
2.230

> <Idih>
0.000

> <Tether>
0.000

$$$$
VeraChem MOL file


 20 19  0  0  0  0  0  0  0  0999 V2000     
   19.6460   17.6267   23.5044 N   0  3  0  0  0  0  0  0  0  0  0  0
   19.5889   17.3545   24.4915 H   0  0  0  0  0  0  0  0  0  0  0  0
   18.9807   18.3922   23.3592 H   0  0  0  0  0  0  0  0  0  0  0  0
   19.3155   16.8271   22.9552 H   0  0  0  0  0  0  0  0  0  0  0  0
   21.0530   18.0351   23.1129 C   0  0  0  0  0  0  0  0  0  0  0  0
   21.6982   17.1710   23.2933 H   0  0  0  0  0  0  0  0  0  0  0  0
   21.3790   18.8451   23.7708 H   0  0  0  0  0  0  0  0  0  0  0  0
   21.1925   18.4685   21.6394 C   0  0  0  0  0  0  0  0  0  0  0  0
   22.2439   18.3371   21.3512 H   0  0  0  0  0  0  0  0  0  0  0  0
   20.6195   17.7879   20.9958 H   0  0  0  0  0  0  0  0  0  0  0  0
   20.8013   19.9414   21.3435 C   0  0  0  0  0  0  0  0  0  0  0  0
   21.0003   20.1262   20.2787 H   0  0  0  0  0  0  0  0  0  0  0  0
   21.4687   20.6229   21.8889 H   0  0  0  0  0  0  0  0  0  0  0  0
   19.3217   20.3074   21.6253 C   0  0  0  0  0  0  0  0  0  0  0  0
   18.9896   21.0306   20.8671 H   0  0  0  0  0  0  0  0  0  0  0  0
   18.6768   19.4277   21.4961 H   0  0  0  0  0  0  0  0  0  0  0  0
   19.1091   20.9502   23.0165 C   0  0  0  0  0  0  0  0  0  0  0  0
   19.4816   20.3200   23.8312 H   0  0  0  0  0  0  0  0  0  0  0  0
   19.6322   21.9133   23.0806 H   0  0  0  0  0  0  0  0  0  0  0  0
   18.0429   21.1413   23.1955 H   0  0  0  0  0  0  0  0  0  0  0  0
  1  2  1  0  0  0  0
  1  3  1  0  0  0  0
  1  4  1  0  0  0  0
  1  5  1  0  0  0  0
  5  6  1  0  0  0  0
  5  7  1  0  0  0  0
  5  8  1  0  0  0  0
  8  9  1  0  0  0  0
  8 10  1  0  0  0  0
  8 11  1  0  0  0  0
 11 12  1  0  0  0  0
 11 13  1  0  0  0  0
 11 14  1  0  0  0  0
 14 15  1  0  0  0  0
 14 16  1  0  0  0  0
 14 17  1  0  0  0  0
 17 18  1  0  0  0  0
 17 19  1  0  0  0  0
 17 20  1  0  0  0  0
M  END
> <VConfSearch Rank>
399

> <Conf_Id>
77

> <Delta U+W>
5.366

> <U+W>
-6.412

> <U>
51.542

> <W>
-57.954

> <W(PB)>
-59.811

> <W(SA)>
1.857

> <Valence>
5.347

> <Coulomb>
45.870

> <VdW>
0.325

> <VdW6>
-6.161

> <VdW12>
6.486

> <Bond>
0.201

> <Angle>
1.484

> <Pdih>
3.662

> <Idih>
0.000

> <Tether>
0.000

$$$$
VeraChem MOL file


 20 19  0  0  0  0  0  0  0  0999 V2000     
   20.4593   20.4669   23.7851 N   0  3  0  0  0  0  0  0  0  0  0  0
   19.6507   21.0810   23.9243 H   0  0  0  0  0  0  0  0  0  0  0  0
   20.1739   19.5209   24.0556 H   0  0  0  0  0  0  0  0  0  0  0  0
   21.1814   20.7700   24.4472 H   0  0  0  0  0  0  0  0  0  0  0  0
   20.9556   20.5065   22.3527 C   0  0  0  0  0  0  0  0  0  0  0  0
   21.8540   19.8883   22.2755 H   0  0  0  0  0  0  0  0  0  0  0  0
   21.2369   21.5415   22.1406 H   0  0  0  0  0  0  0  0  0  0  0  0
   19.9119   20.0458   21.3150 C   0  0  0  0  0  0  0  0  0  0  0  0
   18.9280   20.4635   21.5665 H   0  0  0  0  0  0  0  0  0  0  0  0
   20.1853   20.4882   20.3479 H   0  0  0  0  0  0  0  0  0  0  0  0
   19.8070   18.5093   21.1197 C   0  0  0  0  0  0  0  0  0  0  0  0
   20.7587   18.1146   20.7376 H   0  0  0  0  0  0  0  0  0  0  0  0
   19.0736   18.3293   20.3215 H   0  0  0  0  0  0  0  0  0  0  0  0
   19.3622   17.7075   22.3694 C   0  0  0  0  0  0  0  0  0  0  0  0
   18.7197   18.3237   23.0128 H   0  0  0  0  0  0  0  0  0  0  0  0
   18.7329   16.8683   22.0410 H   0  0  0  0  0  0  0  0  0  0  0  0
   20.5496   17.1224   23.1704 C   0  0  0  0  0  0  0  0  0  0  0  0
   20.1924   16.6117   24.0742 H   0  0  0  0  0  0  0  0  0  0  0  0
   21.0950   16.3842   22.5680 H   0  0  0  0  0  0  0  0  0  0  0  0
   21.2678   17.8903   23.4770 H   0  0  0  0  0  0  0  0  0  0  0  0
  1  2  1  0  0  0  0
  1  3  1  0  0  0  0
  1  4  1  0  0  0  0
  1  5  1  0  0  0  0
  5  6  1  0  0  0  0
  5  7  1  0  0  0  0
  5  8  1  0  0  0  0
  8  9  1  0  0  0  0
  8 10  1  0  0  0  0
  8 11  1  0  0  0  0
 11 12  1  0  0  0  0
 11 13  1  0  0  0  0
 11 14  1  0  0  0  0
 14 15  1  0  0  0  0
 14 16  1  0  0  0  0
 14 17  1  0  0  0  0
 17 18  1  0  0  0  0
 17 19  1  0  0  0  0
 17 20  1  0  0  0  0
M  END
> <VConfSearch Rank>
400

> <Conf_Id>
67

> <Delta U+W>
5.353

> <U+W>
-6.425

> <U>
51.541

> <W>
-57.966

> <W(PB)>
-59.821

> <W(SA)>
1.855

> <Valence>
5.347

> <Coulomb>
45.870

> <VdW>
0.325

> <VdW6>
-6.161

> <VdW12>
6.486

> <Bond>
0.201

> <Angle>
1.485

> <Pdih>
3.662

> <Idih>
0.000

> <Tether>
0.000

$$$$
VeraChem MOL file


 20 19  0  0  0  0  0  0  0  0999 V2000     
   19.8529   17.5792   19.6630 N   0  3  0  0  0  0  0  0  0  0  0  0
   19.0211   18.0683   19.3175 H   0  0  0  0  0  0  0  0  0  0  0  0
   20.4403   17.3791   18.8466 H   0  0  0  0  0  0  0  0  0  0  0  0
   19.5396   16.6758   20.0320 H   0  0  0  0  0  0  0  0  0  0  0  0
   20.5952   18.3905   20.7056 C   0  0  0  0  0  0  0  0  0  0  0  0
   20.9244   19.3219   20.2370 H   0  0  0  0  0  0  0  0  0  0  0  0
   21.4817   17.8250   21.0052 H   0  0  0  0  0  0  0  0  0  0  0  0
   19.7406   18.7087   21.9457 C   0  0  0  0  0  0  0  0  0  0  0  0
   18.8435   19.2627   21.6383 H   0  0  0  0  0  0  0  0  0  0  0  0
   19.3989   17.7709   22.4038 H   0  0  0  0  0  0  0  0  0  0  0  0
   20.5332   19.5357   22.9823 C   0  0  0  0  0  0  0  0  0  0  0  0
   20.8779   20.4708   22.5191 H   0  0  0  0  0  0  0  0  0  0  0  0
   21.4326   18.9807   23.2837 H   0  0  0  0  0  0  0  0  0  0  0  0
   19.6848   19.8612   24.2320 C   0  0  0  0  0  0  0  0  0  0  0  0
   18.7850   20.4183   23.9352 H   0  0  0  0  0  0  0  0  0  0  0  0
   19.3396   18.9284   24.6998 H   0  0  0  0  0  0  0  0  0  0  0  0
   20.4807   20.6876   25.2648 C   0  0  0  0  0  0  0  0  0  0  0  0
   20.8105   21.6431   24.8365 H   0  0  0  0  0  0  0  0  0  0  0  0
   19.8620   20.9087   26.1442 H   0  0  0  0  0  0  0  0  0  0  0  0
   21.3694   20.1416   25.6072 H   0  0  0  0  0  0  0  0  0  0  0  0
  1  2  1  0  0  0  0
  1  3  1  0  0  0  0
  1  4  1  0  0  0  0
  1  5  1  0  0  0  0
  5  6  1  0  0  0  0
  5  7  1  0  0  0  0
  5  8  1  0  0  0  0
  8  9  1  0  0  0  0
  8 10  1  0  0  0  0
  8 11  1  0  0  0  0
 11 12  1  0  0  0  0
 11 13  1  0  0  0  0
 11 14  1  0  0  0  0
 14 15  1  0  0  0  0
 14 16  1  0  0  0  0
 14 17  1  0  0  0  0
 17 18  1  0  0  0  0
 17 19  1  0  0  0  0
 17 20  1  0  0  0  0
M  END
> <VConfSearch Rank>
401

> <Conf_Id>
72

> <Delta U+W>
0.000

> <U+W>
-11.778

> <U>
45.772

> <W>
-57.550

> <W(PB)>
-59.511

> <W(SA)>
1.961

> <Valence>
1.299

> <Coulomb>
44.177

> <VdW>
0.297

> <VdW6>
-3.490

> <VdW12>
3.786

> <Bond>
0.096

> <Angle>
0.381

> <Pdih>
0.822

> <Idih>
0.000

> <Tether>
0.000

$$$$
VeraChem MOL file


 20 19  0  0  0  0  0  0  0  0999 V2000     
   22.1655   19.4146   20.3126 N   0  3  0  0  0  0  0  0  0  0  0  0
   21.4380   19.5176   19.5981 H   0  0  0  0  0  0  0  0  0  0  0  0
   22.4974   20.3566   20.5427 H   0  0  0  0  0  0  0  0  0  0  0  0
   22.9492   18.9233   19.8699 H   0  0  0  0  0  0  0  0  0  0  0  0
   21.6582   18.6782   21.5360 C   0  0  0  0  0  0  0  0  0  0  0  0
   22.4900   18.5782   22.2386 H   0  0  0  0  0  0  0  0  0  0  0  0
   21.3505   17.6765   21.2237 H   0  0  0  0  0  0  0  0  0  0  0  0
   20.4805   19.3898   22.2258 C   0  0  0  0  0  0  0  0  0  0  0  0
   20.7890   20.4008   22.5235 H   0  0  0  0  0  0  0  0  0  0  0  0
   19.6589   19.5005   21.5069 H   0  0  0  0  0  0  0  0  0  0  0  0
   19.9975   18.6055   23.4687 C   0  0  0  0  0  0  0  0  0  0  0  0
   20.8511   18.4387   24.1404 H   0  0  0  0  0  0  0  0  0  0  0  0
   19.6454   17.6100   23.1644 H   0  0  0  0  0  0  0  0  0  0  0  0
   18.8816   19.3294   24.2609 C   0  0  0  0  0  0  0  0  0  0  0  0
   18.6732   18.7594   25.1772 H   0  0  0  0  0  0  0  0  0  0  0  0
   19.2380   20.3163   24.5879 H   0  0  0  0  0  0  0  0  0  0  0  0
   17.5667   19.4894   23.4641 C   0  0  0  0  0  0  0  0  0  0  0  0
   17.2038   18.5189   23.1014 H   0  0  0  0  0  0  0  0  0  0  0  0
   16.7835   19.9240   24.0988 H   0  0  0  0  0  0  0  0  0  0  0  0
   17.6962   20.1532   22.6004 H   0  0  0  0  0  0  0  0  0  0  0  0
  1  2  1  0  0  0  0
  1  3  1  0  0  0  0
  1  4  1  0  0  0  0
  1  5  1  0  0  0  0
  5  6  1  0  0  0  0
  5  7  1  0  0  0  0
  5  8  1  0  0  0  0
  8  9  1  0  0  0  0
  8 10  1  0  0  0  0
  8 11  1  0  0  0  0
 11 12  1  0  0  0  0
 11 13  1  0  0  0  0
 11 14  1  0  0  0  0
 14 15  1  0  0  0  0
 14 16  1  0  0  0  0
 14 17  1  0  0  0  0
 17 18  1  0  0  0  0
 17 19  1  0  0  0  0
 17 20  1  0  0  0  0
M  END
> <VConfSearch Rank>
402

> <Conf_Id>
42

> <Delta U+W>
0.508

> <U+W>
-11.270

> <U>
46.486

> <W>
-57.756

> <W(PB)>
-59.705

> <W(SA)>
1.949

> <Valence>
1.806

> <Coulomb>
44.248

> <VdW>
0.433

> <VdW6>
-4.089

> <VdW12>
4.522

> <Bond>
0.131

> <Angle>
0.628

> <Pdih>
1.047

> <Idih>
0.000

> <Tether>
0.000

$$$$
VeraChem MOL file


 20 19  0  0  0  0  0  0  0  0999 V2000     
   19.0881   16.9264   20.6537 N   0  3  0  0  0  0  0  0  0  0  0  0
   18.1660   16.8240   21.0891 H   0  0  0  0  0  0  0  0  0  0  0  0
   18.9868   17.6005   19.8883 H   0  0  0  0  0  0  0  0  0  0  0  0
   19.3166   16.0230   20.2257 H   0  0  0  0  0  0  0  0  0  0  0  0
   20.1419   17.3584   21.6535 C   0  0  0  0  0  0  0  0  0  0  0  0
   21.0999   17.4179   21.1298 H   0  0  0  0  0  0  0  0  0  0  0  0
   20.2175   16.5825   22.4202 H   0  0  0  0  0  0  0  0  0  0  0  0
   19.8290   18.7121   22.3158 C   0  0  0  0  0  0  0  0  0  0  0  0
   19.7378   19.4790   21.5363 H   0  0  0  0  0  0  0  0  0  0  0  0
   18.8590   18.6527   22.8270 H   0  0  0  0  0  0  0  0  0  0  0  0
   20.9279   19.1117   23.3287 C   0  0  0  0  0  0  0  0  0  0  0  0
   21.8903   19.2164   22.8086 H   0  0  0  0  0  0  0  0  0  0  0  0
   21.0572   18.2979   24.0558 H   0  0  0  0  0  0  0  0  0  0  0  0
   20.6121   20.4161   24.1004 C   0  0  0  0  0  0  0  0  0  0  0  0
   19.6617   20.3073   24.6415 H   0  0  0  0  0  0  0  0  0  0  0  0
   21.3854   20.5687   24.8664 H   0  0  0  0  0  0  0  0  0  0  0  0
   20.5543   21.6676   23.1950 C   0  0  0  0  0  0  0  0  0  0  0  0
   19.7170   21.6161   22.4881 H   0  0  0  0  0  0  0  0  0  0  0  0
   20.4191   22.5735   23.8000 H   0  0  0  0  0  0  0  0  0  0  0  0
   21.4829   21.7835   22.6211 H   0  0  0  0  0  0  0  0  0  0  0  0
  1  2  1  0  0  0  0
  1  3  1  0  0  0  0
  1  4  1  0  0  0  0
  1  5  1  0  0  0  0
  5  6  1  0  0  0  0
  5  7  1  0  0  0  0
  5  8  1  0  0  0  0
  8  9  1  0  0  0  0
  8 10  1  0  0  0  0
  8 11  1  0  0  0  0
 11 12  1  0  0  0  0
 11 13  1  0  0  0  0
 11 14  1  0  0  0  0
 14 15  1  0  0  0  0
 14 16  1  0  0  0  0
 14 17  1  0  0  0  0
 17 18  1  0  0  0  0
 17 19  1  0  0  0  0
 17 20  1  0  0  0  0
M  END
> <VConfSearch Rank>
403

> <Conf_Id>
41

> <Delta U+W>
0.515

> <U+W>
-11.263

> <U>
46.486

> <W>
-57.749

> <W(PB)>
-59.685

> <W(SA)>
1.936

> <Valence>
1.806

> <Coulomb>
44.248

> <VdW>
0.433

> <VdW6>
-4.089

> <VdW12>
4.522

> <Bond>
0.131

> <Angle>
0.628

> <Pdih>
1.047

> <Idih>
0.000

> <Tether>
0.000

$$$$
VeraChem MOL file


 20 19  0  0  0  0  0  0  0  0999 V2000     
   17.6835   19.6416   23.6124 N   0  3  0  0  0  0  0  0  0  0  0  0
   16.8474   20.2230   23.7323 H   0  0  0  0  0  0  0  0  0  0  0  0
   17.4571   18.9362   22.9052 H   0  0  0  0  0  0  0  0  0  0  0  0
   17.8313   19.1466   24.4975 H   0  0  0  0  0  0  0  0  0  0  0  0
   18.8923   20.4687   23.2190 C   0  0  0  0  0  0  0  0  0  0  0  0
   19.0436   21.2230   23.9961 H   0  0  0  0  0  0  0  0  0  0  0  0
   18.6607   20.9860   22.2841 H   0  0  0  0  0  0  0  0  0  0  0  0
   20.1845   19.6456   23.0501 C   0  0  0  0  0  0  0  0  0  0  0  0
   21.0126   20.3459   22.8846 H   0  0  0  0  0  0  0  0  0  0  0  0
   20.4049   19.1135   23.9850 H   0  0  0  0  0  0  0  0  0  0  0  0
   20.1047   18.6413   21.8727 C   0  0  0  0  0  0  0  0  0  0  0  0
   19.9067   19.1830   20.9374 H   0  0  0  0  0  0  0  0  0  0  0  0
   19.2523   17.9663   22.0252 H   0  0  0  0  0  0  0  0  0  0  0  0
   21.3804   17.7792   21.7103 C   0  0  0  0  0  0  0  0  0  0  0  0
   21.5752   17.2246   22.6389 H   0  0  0  0  0  0  0  0  0  0  0  0
   21.1976   17.0228   20.9341 H   0  0  0  0  0  0  0  0  0  0  0  0
   22.6326   18.5977   21.3208 C   0  0  0  0  0  0  0  0  0  0  0  0
   22.9321   19.2844   22.1221 H   0  0  0  0  0  0  0  0  0  0  0  0
   23.4819   17.9303   21.1253 H   0  0  0  0  0  0  0  0  0  0  0  0
   22.4531   19.1863   20.4118 H   0  0  0  0  0  0  0  0  0  0  0  0
  1  2  1  0  0  0  0
  1  3  1  0  0  0  0
  1  4  1  0  0  0  0
  1  5  1  0  0  0  0
  5  6  1  0  0  0  0
  5  7  1  0  0  0  0
  5  8  1  0  0  0  0
  8  9  1  0  0  0  0
  8 10  1  0  0  0  0
  8 11  1  0  0  0  0
 11 12  1  0  0  0  0
 11 13  1  0  0  0  0
 11 14  1  0  0  0  0
 14 15  1  0  0  0  0
 14 16  1  0  0  0  0
 14 17  1  0  0  0  0
 17 18  1  0  0  0  0
 17 19  1  0  0  0  0
 17 20  1  0  0  0  0
M  END
> <VConfSearch Rank>
404

> <Conf_Id>
33

> <Delta U+W>
0.703

> <U+W>
-11.075

> <U>
47.080

> <W>
-58.154

> <W(PB)>
-60.053

> <W(SA)>
1.899

> <Valence>
1.943

> <Coulomb>
44.572

> <VdW>
0.565

> <VdW6>
-4.575

> <VdW12>
5.139

> <Bond>
0.158

> <Angle>
0.700

> <Pdih>
1.085

> <Idih>
0.000

> <Tether>
0.000

$$$$
VeraChem MOL file


 20 19  0  0  0  0  0  0  0  0999 V2000     
   22.0127   20.6840   23.7841 N   0  3  0  0  0  0  0  0  0  0  0  0
   22.3831   21.5943   24.0768 H   0  0  0  0  0  0  0  0  0  0  0  0
   22.2803   20.0077   24.5061 H   0  0  0  0  0  0  0  0  0  0  0  0
   22.5074   20.4228   22.9263 H   0  0  0  0  0  0  0  0  0  0  0  0
   20.5105   20.7272   23.5796 C   0  0  0  0  0  0  0  0  0  0  0  0
   20.2926   21.4807   22.8179 H   0  0  0  0  0  0  0  0  0  0  0  0
   20.0583   21.0541   24.5200 H   0  0  0  0  0  0  0  0  0  0  0  0
   19.8976   19.3758   23.1626 C   0  0  0  0  0  0  0  0  0  0  0  0
   20.1329   18.6172   23.9208 H   0  0  0  0  0  0  0  0  0  0  0  0
   18.8061   19.4865   23.1574 H   0  0  0  0  0  0  0  0  0  0  0  0
   20.3827   18.9031   21.7690 C   0  0  0  0  0  0  0  0  0  0  0  0
   21.4782   18.8291   21.7690 H   0  0  0  0  0  0  0  0  0  0  0  0
   20.1238   19.6566   21.0122 H   0  0  0  0  0  0  0  0  0  0  0  0
   19.8058   17.5293   21.3486 C   0  0  0  0  0  0  0  0  0  0  0  0
   20.2851   17.2186   20.4097 H   0  0  0  0  0  0  0  0  0  0  0  0
   20.0738   16.7691   22.0957 H   0  0  0  0  0  0  0  0  0  0  0  0
   18.2736   17.5402   21.1440 C   0  0  0  0  0  0  0  0  0  0  0  0
   17.9764   18.3139   20.4242 H   0  0  0  0  0  0  0  0  0  0  0  0
   17.9313   16.5722   20.7556 H   0  0  0  0  0  0  0  0  0  0  0  0
   17.7413   17.7231   22.0855 H   0  0  0  0  0  0  0  0  0  0  0  0
  1  2  1  0  0  0  0
  1  3  1  0  0  0  0
  1  4  1  0  0  0  0
  1  5  1  0  0  0  0
  5  6  1  0  0  0  0
  5  7  1  0  0  0  0
  5  8  1  0  0  0  0
  8  9  1  0  0  0  0
  8 10  1  0  0  0  0
  8 11  1  0  0  0  0
 11 12  1  0  0  0  0
 11 13  1  0  0  0  0
 11 14  1  0  0  0  0
 14 15  1  0  0  0  0
 14 16  1  0  0  0  0
 14 17  1  0  0  0  0
 17 18  1  0  0  0  0
 17 19  1  0  0  0  0
 17 20  1  0  0  0  0
M  END
> <VConfSearch Rank>
405

> <Conf_Id>
24

> <Delta U+W>
0.847

> <U+W>
-10.931

> <U>
47.080

> <W>
-58.011

> <W(PB)>
-59.914

> <W(SA)>
1.903

> <Valence>
1.943

> <Coulomb>
44.572

> <VdW>
0.565

> <VdW6>
-4.575

> <VdW12>
5.140

> <Bond>
0.158

> <Angle>
0.700

> <Pdih>
1.085

> <Idih>
0.000

> <Tether>
0.000

$$$$
VeraChem MOL file


 20 19  0  0  0  0  0  0  0  0999 V2000     
   17.5961   18.7341   23.4265 N   0  3  0  0  0  0  0  0  0  0  0  0
   16.7379   19.2323   23.1682 H   0  0  0  0  0  0  0  0  0  0  0  0
   17.5645   17.8240   22.9565 H   0  0  0  0  0  0  0  0  0  0  0  0
   17.5434   18.5548   24.4342 H   0  0  0  0  0  0  0  0  0  0  0  0
   18.8372   19.5205   23.0556 C   0  0  0  0  0  0  0  0  0  0  0  0
   18.7908   20.4860   23.5665 H   0  0  0  0  0  0  0  0  0  0  0  0
   18.8112   19.7001   21.9776 H   0  0  0  0  0  0  0  0  0  0  0  0
   20.1454   18.7988   23.4300 C   0  0  0  0  0  0  0  0  0  0  0  0
   20.1425   18.5863   24.5073 H   0  0  0  0  0  0  0  0  0  0  0  0
   20.1887   17.8254   22.9248 H   0  0  0  0  0  0  0  0  0  0  0  0
   21.4074   19.6297   23.0883 C   0  0  0  0  0  0  0  0  0  0  0  0
   22.2993   19.0638   23.3910 H   0  0  0  0  0  0  0  0  0  0  0  0
   21.4084   20.5437   23.6983 H   0  0  0  0  0  0  0  0  0  0  0  0
   21.5412   20.0263   21.5956 C   0  0  0  0  0  0  0  0  0  0  0  0
   20.7106   20.6822   21.3011 H   0  0  0  0  0  0  0  0  0  0  0  0
   22.4550   20.6243   21.4727 H   0  0  0  0  0  0  0  0  0  0  0  0
   21.6086   18.8125   20.6410 C   0  0  0  0  0  0  0  0  0  0  0  0
   21.7962   19.1433   19.6113 H   0  0  0  0  0  0  0  0  0  0  0  0
   22.4192   18.1297   20.9269 H   0  0  0  0  0  0  0  0  0  0  0  0
   20.6677   18.2484   20.6396 H   0  0  0  0  0  0  0  0  0  0  0  0
  1  2  1  0  0  0  0
  1  3  1  0  0  0  0
  1  4  1  0  0  0  0
  1  5  1  0  0  0  0
  5  6  1  0  0  0  0
  5  7  1  0  0  0  0
  5  8  1  0  0  0  0
  8  9  1  0  0  0  0
  8 10  1  0  0  0  0
  8 11  1  0  0  0  0
 11 12  1  0  0  0  0
 11 13  1  0  0  0  0
 11 14  1  0  0  0  0
 14 15  1  0  0  0  0
 14 16  1  0  0  0  0
 14 17  1  0  0  0  0
 17 18  1  0  0  0  0
 17 19  1  0  0  0  0
 17 20  1  0  0  0  0
M  END
> <VConfSearch Rank>
406

> <Conf_Id>
64

> <Delta U+W>
0.707

> <U+W>
-11.070

> <U>
47.077

> <W>
-58.148

> <W(PB)>
-60.054

> <W(SA)>
1.906

> <Valence>
2.039

> <Coulomb>
44.655

> <VdW>
0.383

> <VdW6>
-4.912

> <VdW12>
5.295

> <Bond>
0.159

> <Angle>
0.856

> <Pdih>
1.024

> <Idih>
0.000

> <Tether>
0.000

$$$$
VeraChem MOL file


 20 19  0  0  0  0  0  0  0  0999 V2000     
   22.9210   19.2031   22.8391 N   0  3  0  0  0  0  0  0  0  0  0  0
   23.2243   19.9024   23.5241 H   0  0  0  0  0  0  0  0  0  0  0  0
   22.9338   18.2936   23.3112 H   0  0  0  0  0  0  0  0  0  0  0  0
   23.6410   19.1699   22.1097 H   0  0  0  0  0  0  0  0  0  0  0  0
   21.5550   19.5256   22.2678 C   0  0  0  0  0  0  0  0  0  0  0  0
   21.3113   18.7594   21.5271 H   0  0  0  0  0  0  0  0  0  0  0  0
   21.6215   20.4897   21.7563 H   0  0  0  0  0  0  0  0  0  0  0  0
   20.4492   19.5826   23.3385 C   0  0  0  0  0  0  0  0  0  0  0  0
   20.3878   18.6182   23.8588 H   0  0  0  0  0  0  0  0  0  0  0  0
   20.7239   20.3254   24.0991 H   0  0  0  0  0  0  0  0  0  0  0  0
   19.0652   19.9572   22.7517 C   0  0  0  0  0  0  0  0  0  0  0  0
   19.1141   20.9774   22.3464 H   0  0  0  0  0  0  0  0  0  0  0  0
   18.3298   19.9913   23.5674 H   0  0  0  0  0  0  0  0  0  0  0  0
   18.5488   19.0044   21.6432 C   0  0  0  0  0  0  0  0  0  0  0  0
   17.5759   19.3736   21.2894 H   0  0  0  0  0  0  0  0  0  0  0  0
   19.2177   19.0373   20.7724 H   0  0  0  0  0  0  0  0  0  0  0  0
   18.3838   17.5425   22.1171 C   0  0  0  0  0  0  0  0  0  0  0  0
   17.7350   17.4846   23.0006 H   0  0  0  0  0  0  0  0  0  0  0  0
   17.9297   16.9311   21.3266 H   0  0  0  0  0  0  0  0  0  0  0  0
   19.3506   17.0895   22.3696 H   0  0  0  0  0  0  0  0  0  0  0  0
  1  2  1  0  0  0  0
  1  3  1  0  0  0  0
  1  4  1  0  0  0  0
  1  5  1  0  0  0  0
  5  6  1  0  0  0  0
  5  7  1  0  0  0  0
  5  8  1  0  0  0  0
  8  9  1  0  0  0  0
  8 10  1  0  0  0  0
  8 11  1  0  0  0  0
 11 12  1  0  0  0  0
 11 13  1  0  0  0  0
 11 14  1  0  0  0  0
 14 15  1  0  0  0  0
 14 16  1  0  0  0  0
 14 17  1  0  0  0  0
 17 18  1  0  0  0  0
 17 19  1  0  0  0  0
 17 20  1  0  0  0  0
M  END
> <VConfSearch Rank>
407

> <Conf_Id>
22

> <Delta U+W>
0.731

> <U+W>
-11.047

> <U>
47.078

> <W>
-58.125

> <W(PB)>
-60.031

> <W(SA)>
1.906

> <Valence>
2.039

> <Coulomb>
44.655

> <VdW>
0.383

> <VdW6>
-4.913

> <VdW12>
5.296

> <Bond>
0.159

> <Angle>
0.856

> <Pdih>
1.024

> <Idih>
0.000

> <Tether>
0.000

$$$$
VeraChem MOL file


 20 19  0  0  0  0  0  0  0  0999 V2000     
   21.1818   21.5962   21.5941 N   0  3  0  0  0  0  0  0  0  0  0  0
   20.4053   22.2386   21.7807 H   0  0  0  0  0  0  0  0  0  0  0  0
   21.9825   21.9243   22.1433 H   0  0  0  0  0  0  0  0  0  0  0  0
   21.4320   21.7111   20.6064 H   0  0  0  0  0  0  0  0  0  0  0  0
   20.8207   20.1611   21.9209 C   0  0  0  0  0  0  0  0  0  0  0  0
   21.6796   19.5314   21.6735 H   0  0  0  0  0  0  0  0  0  0  0  0
   19.9839   19.8756   21.2794 H   0  0  0  0  0  0  0  0  0  0  0  0
   20.4344   19.9563   23.3965 C   0  0  0  0  0  0  0  0  0  0  0  0
   21.2359   20.3586   24.0303 H   0  0  0  0  0  0  0  0  0  0  0  0
   19.5351   20.5440   23.6239 H   0  0  0  0  0  0  0  0  0  0  0  0
   20.1993   18.4744   23.7845 C   0  0  0  0  0  0  0  0  0  0  0  0
   20.0224   18.4415   24.8686 H   0  0  0  0  0  0  0  0  0  0  0  0
   21.1135   17.8888   23.6154 H   0  0  0  0  0  0  0  0  0  0  0  0
   18.9931   17.7987   23.0819 C   0  0  0  0  0  0  0  0  0  0  0  0
   18.6068   17.0100   23.7428 H   0  0  0  0  0  0  0  0  0  0  0  0
   18.1714   18.5181   22.9589 H   0  0  0  0  0  0  0  0  0  0  0  0
   19.3434   17.1470   21.7234 C   0  0  0  0  0  0  0  0  0  0  0  0
   19.6520   17.8848   20.9755 H   0  0  0  0  0  0  0  0  0  0  0  0
   20.1541   16.4154   21.8351 H   0  0  0  0  0  0  0  0  0  0  0  0
   18.4717   16.6165   21.3188 H   0  0  0  0  0  0  0  0  0  0  0  0
  1  2  1  0  0  0  0
  1  3  1  0  0  0  0
  1  4  1  0  0  0  0
  1  5  1  0  0  0  0
  5  6  1  0  0  0  0
  5  7  1  0  0  0  0
  5  8  1  0  0  0  0
  8  9  1  0  0  0  0
  8 10  1  0  0  0  0
  8 11  1  0  0  0  0
 11 12  1  0  0  0  0
 11 13  1  0  0  0  0
 11 14  1  0  0  0  0
 14 15  1  0  0  0  0
 14 16  1  0  0  0  0
 14 17  1  0  0  0  0
 17 18  1  0  0  0  0
 17 19  1  0  0  0  0
 17 20  1  0  0  0  0
M  END
> <VConfSearch Rank>
408

> <Conf_Id>
61

> <Delta U+W>
2.669

> <U+W>
-9.108

> <U>
48.916

> <W>
-58.025

> <W(PB)>
-59.935

> <W(SA)>
1.911

> <Valence>
3.785

> <Coulomb>
44.716

> <VdW>
0.415

> <VdW6>
-4.836

> <VdW12>
5.251

> <Bond>
0.175

> <Angle>
1.195

> <Pdih>
2.415

> <Idih>
0.000

> <Tether>
0.000

$$$$
VeraChem MOL file


 20 19  0  0  0  0  0  0  0  0999 V2000     
   18.4430   18.9137   23.9690 N   0  3  0  0  0  0  0  0  0  0  0  0
   18.1834   18.5734   24.9009 H   0  0  0  0  0  0  0  0  0  0  0  0
   17.5890   19.2835   23.5398 H   0  0  0  0  0  0  0  0  0  0  0  0
   18.7284   18.0986   23.4202 H   0  0  0  0  0  0  0  0  0  0  0  0
   19.5371   19.9619   24.0385 C   0  0  0  0  0  0  0  0  0  0  0  0
   20.3995   19.5321   24.5551 H   0  0  0  0  0  0  0  0  0  0  0  0
   19.1523   20.7831   24.6493 H   0  0  0  0  0  0  0  0  0  0  0  0
   19.9723   20.5194   22.6669 C   0  0  0  0  0  0  0  0  0  0  0  0
   19.0909   20.7015   22.0377 H   0  0  0  0  0  0  0  0  0  0  0  0
   20.4290   21.5036   22.8366 H   0  0  0  0  0  0  0  0  0  0  0  0
   21.0035   19.6418   21.9119 C   0  0  0  0  0  0  0  0  0  0  0  0
   21.9024   19.5180   22.5317 H   0  0  0  0  0  0  0  0  0  0  0  0
   21.3247   20.1880   21.0142 H   0  0  0  0  0  0  0  0  0  0  0  0
   20.4742   18.2517   21.4877 C   0  0  0  0  0  0  0  0  0  0  0  0
   20.2889   17.6331   22.3747 H   0  0  0  0  0  0  0  0  0  0  0  0
   19.5170   18.3616   20.9589 H   0  0  0  0  0  0  0  0  0  0  0  0
   21.4787   17.5150   20.5760 C   0  0  0  0  0  0  0  0  0  0  0  0
   21.0927   16.5274   20.2920 H   0  0  0  0  0  0  0  0  0  0  0  0
   21.6647   18.0807   19.6537 H   0  0  0  0  0  0  0  0  0  0  0  0
   22.4397   17.3671   21.0858 H   0  0  0  0  0  0  0  0  0  0  0  0
  1  2  1  0  0  0  0
  1  3  1  0  0  0  0
  1  4  1  0  0  0  0
  1  5  1  0  0  0  0
  5  6  1  0  0  0  0
  5  7  1  0  0  0  0
  5  8  1  0  0  0  0
  8  9  1  0  0  0  0
  8 10  1  0  0  0  0
  8 11  1  0  0  0  0
 11 12  1  0  0  0  0
 11 13  1  0  0  0  0
 11 14  1  0  0  0  0
 14 15  1  0  0  0  0
 14 16  1  0  0  0  0
 14 17  1  0  0  0  0
 17 18  1  0  0  0  0
 17 19  1  0  0  0  0
 17 20  1  0  0  0  0
M  END
> <VConfSearch Rank>
409

> <Conf_Id>
69

> <Delta U+W>
2.811

> <U+W>
-8.967

> <U>
49.216

> <W>
-58.183

> <W(PB)>
-60.064

> <W(SA)>
1.881

> <Valence>
2.929

> <Coulomb>
46.006

> <VdW>
0.281

> <VdW6>
-4.909

> <VdW12>
5.190

> <Bond>
0.156

> <Angle>
0.974

> <Pdih>
1.799

> <Idih>
0.000

> <Tether>
0.000

$$$$
VeraChem MOL file


 20 19  0  0  0  0  0  0  0  0999 V2000     
   19.6265   21.4017   22.6928 N   0  3  0  0  0  0  0  0  0  0  0  0
   20.5884   21.0559   22.6453 H   0  0  0  0  0  0  0  0  0  0  0  0
   19.4005   21.7943   21.7736 H   0  0  0  0  0  0  0  0  0  0  0  0
   19.6194   22.1817   23.3585 H   0  0  0  0  0  0  0  0  0  0  0  0
   18.6511   20.3117   23.0943 C   0  0  0  0  0  0  0  0  0  0  0  0
   17.6593   20.7705   23.1315 H   0  0  0  0  0  0  0  0  0  0  0  0
   18.9039   19.9715   24.1021 H   0  0  0  0  0  0  0  0  0  0  0  0
   18.6099   19.1078   22.1298 C   0  0  0  0  0  0  0  0  0  0  0  0
   17.6413   18.6076   22.2619 H   0  0  0  0  0  0  0  0  0  0  0  0
   18.6278   19.4582   21.0892 H   0  0  0  0  0  0  0  0  0  0  0  0
   19.7235   18.0549   22.3648 C   0  0  0  0  0  0  0  0  0  0  0  0
   19.5273   17.1974   21.7062 H   0  0  0  0  0  0  0  0  0  0  0  0
   19.6545   17.6723   23.3925 H   0  0  0  0  0  0  0  0  0  0  0  0
   21.1582   18.5689   22.1010 C   0  0  0  0  0  0  0  0  0  0  0  0
   21.2073   19.0505   21.1142 H   0  0  0  0  0  0  0  0  0  0  0  0
   21.4301   19.3251   22.8480 H   0  0  0  0  0  0  0  0  0  0  0  0
   22.1922   17.4243   22.1617 C   0  0  0  0  0  0  0  0  0  0  0  0
   21.9821   16.6604   21.4018 H   0  0  0  0  0  0  0  0  0  0  0  0
   23.2053   17.8068   21.9822 H   0  0  0  0  0  0  0  0  0  0  0  0
   22.1854   16.9380   23.1460 H   0  0  0  0  0  0  0  0  0  0  0  0
  1  2  1  0  0  0  0
  1  3  1  0  0  0  0
  1  4  1  0  0  0  0
  1  5  1  0  0  0  0
  5  6  1  0  0  0  0
  5  7  1  0  0  0  0
  5  8  1  0  0  0  0
  8  9  1  0  0  0  0
  8 10  1  0  0  0  0
  8 11  1  0  0  0  0
 11 12  1  0  0  0  0
 11 13  1  0  0  0  0
 11 14  1  0  0  0  0
 14 15  1  0  0  0  0
 14 16  1  0  0  0  0
 14 17  1  0  0  0  0
 17 18  1  0  0  0  0
 17 19  1  0  0  0  0
 17 20  1  0  0  0  0
M  END
> <VConfSearch Rank>
410

> <Conf_Id>
26

> <Delta U+W>
2.809

> <U+W>
-8.969

> <U>
49.216

> <W>
-58.185

> <W(PB)>
-60.088

> <W(SA)>
1.903

> <Valence>
2.929

> <Coulomb>
46.006

> <VdW>
0.281

> <VdW6>
-4.909

> <VdW12>
5.190

> <Bond>
0.156

> <Angle>
0.974

> <Pdih>
1.799

> <Idih>
0.000

> <Tether>
0.000

$$$$
VeraChem MOL file


 20 19  0  0  0  0  0  0  0  0999 V2000     
   18.0884   19.1517   23.7622 N   0  3  0  0  0  0  0  0  0  0  0  0
   17.8453   19.4852   22.8248 H   0  0  0  0  0  0  0  0  0  0  0  0
   17.6250   18.2469   23.8913 H   0  0  0  0  0  0  0  0  0  0  0  0
   17.6649   19.8022   24.4320 H   0  0  0  0  0  0  0  0  0  0  0  0
   19.5896   19.0480   23.9489 C   0  0  0  0  0  0  0  0  0  0  0  0
   19.7755   18.7185   24.9748 H   0  0  0  0  0  0  0  0  0  0  0  0
   20.0166   20.0474   23.8313 H   0  0  0  0  0  0  0  0  0  0  0  0
   20.2702   18.0730   22.9670 C   0  0  0  0  0  0  0  0  0  0  0  0
   21.3355   18.0013   23.2210 H   0  0  0  0  0  0  0  0  0  0  0  0
   19.8584   17.0662   23.1170 H   0  0  0  0  0  0  0  0  0  0  0  0
   20.1163   18.4705   21.4753 C   0  0  0  0  0  0  0  0  0  0  0  0
   19.0614   18.3821   21.1826 H   0  0  0  0  0  0  0  0  0  0  0  0
   20.6577   17.7410   20.8573 H   0  0  0  0  0  0  0  0  0  0  0  0
   20.6161   19.8960   21.1272 C   0  0  0  0  0  0  0  0  0  0  0  0
   20.4400   20.0779   20.0578 H   0  0  0  0  0  0  0  0  0  0  0  0
   20.0220   20.6488   21.6628 H   0  0  0  0  0  0  0  0  0  0  0  0
   22.1171   20.1097   21.4277 C   0  0  0  0  0  0  0  0  0  0  0  0
   22.7329   19.3584   20.9165 H   0  0  0  0  0  0  0  0  0  0  0  0
   22.4411   21.1001   21.0828 H   0  0  0  0  0  0  0  0  0  0  0  0
   22.3249   20.0507   22.5033 H   0  0  0  0  0  0  0  0  0  0  0  0
  1  2  1  0  0  0  0
  1  3  1  0  0  0  0
  1  4  1  0  0  0  0
  1  5  1  0  0  0  0
  5  6  1  0  0  0  0
  5  7  1  0  0  0  0
  5  8  1  0  0  0  0
  8  9  1  0  0  0  0
  8 10  1  0  0  0  0
  8 11  1  0  0  0  0
 11 12  1  0  0  0  0
 11 13  1  0  0  0  0
 11 14  1  0  0  0  0
 14 15  1  0  0  0  0
 14 16  1  0  0  0  0
 14 17  1  0  0  0  0
 17 18  1  0  0  0  0
 17 19  1  0  0  0  0
 17 20  1  0  0  0  0
M  END
> <VConfSearch Rank>
411

> <Conf_Id>
2

> <Delta U+W>
0.994

> <U+W>
-10.784

> <U>
47.562

> <W>
-58.346

> <W(PB)>
-60.221

> <W(SA)>
1.875

> <Valence>
2.149

> <Coulomb>
45.034

> <VdW>
0.378

> <VdW6>
-5.599

> <VdW12>
5.977

> <Bond>
0.185

> <Angle>
0.935

> <Pdih>
1.028

> <Idih>
0.000

> <Tether>
0.000

$$$$
VeraChem MOL file


 20 19  0  0  0  0  0  0  0  0999 V2000     
   20.0371   16.6687   22.3626 N   0  3  0  0  0  0  0  0  0  0  0  0
   19.1361   16.2606   22.0947 H   0  0  0  0  0  0  0  0  0  0  0  0
   20.4958   16.9807   21.5017 H   0  0  0  0  0  0  0  0  0  0  0  0
   20.6064   15.9080   22.7480 H   0  0  0  0  0  0  0  0  0  0  0  0
   19.8694   17.8048   23.3525 C   0  0  0  0  0  0  0  0  0  0  0  0
   20.8636   18.1716   23.6207 H   0  0  0  0  0  0  0  0  0  0  0  0
   19.4047   17.3955   24.2536 H   0  0  0  0  0  0  0  0  0  0  0  0
   19.0119   18.9703   22.8188 C   0  0  0  0  0  0  0  0  0  0  0  0
   18.0058   18.5982   22.5847 H   0  0  0  0  0  0  0  0  0  0  0  0
   18.8791   19.7078   23.6206 H   0  0  0  0  0  0  0  0  0  0  0  0
   19.6037   19.6656   21.5645 C   0  0  0  0  0  0  0  0  0  0  0  0
   18.9463   20.4983   21.2787 H   0  0  0  0  0  0  0  0  0  0  0  0
   19.5824   18.9668   20.7175 H   0  0  0  0  0  0  0  0  0  0  0  0
   21.0484   20.2002   21.7381 C   0  0  0  0  0  0  0  0  0  0  0  0
   21.7410   19.3694   21.9297 H   0  0  0  0  0  0  0  0  0  0  0  0
   21.3723   20.6500   20.7891 H   0  0  0  0  0  0  0  0  0  0  0  0
   21.1810   21.2553   22.8597 C   0  0  0  0  0  0  0  0  0  0  0  0
   20.9774   20.8217   23.8467 H   0  0  0  0  0  0  0  0  0  0  0  0
   22.1987   21.6658   22.8831 H   0  0  0  0  0  0  0  0  0  0  0  0
   20.4862   22.0901   22.7006 H   0  0  0  0  0  0  0  0  0  0  0  0
  1  2  1  0  0  0  0
  1  3  1  0  0  0  0
  1  4  1  0  0  0  0
  1  5  1  0  0  0  0
  5  6  1  0  0  0  0
  5  7  1  0  0  0  0
  5  8  1  0  0  0  0
  8  9  1  0  0  0  0
  8 10  1  0  0  0  0
  8 11  1  0  0  0  0
 11 12  1  0  0  0  0
 11 13  1  0  0  0  0
 11 14  1  0  0  0  0
 14 15  1  0  0  0  0
 14 16  1  0  0  0  0
 14 17  1  0  0  0  0
 17 18  1  0  0  0  0
 17 19  1  0  0  0  0
 17 20  1  0  0  0  0
M  END
> <VConfSearch Rank>
412

> <Conf_Id>
1

> <Delta U+W>
1.032

> <U+W>
-10.746

> <U>
47.562

> <W>
-58.308

> <W(PB)>
-60.184

> <W(SA)>
1.877

> <Valence>
2.149

> <Coulomb>
45.035

> <VdW>
0.378

> <VdW6>
-5.599

> <VdW12>
5.978

> <Bond>
0.185

> <Angle>
0.935

> <Pdih>
1.028

> <Idih>
0.000

> <Tether>
0.000

$$$$
VeraChem MOL file


 20 19  0  0  0  0  0  0  0  0999 V2000     
   22.1916   20.3721   22.7195 N   0  3  0  0  0  0  0  0  0  0  0  0
   22.5790   20.5128   23.6577 H   0  0  0  0  0  0  0  0  0  0  0  0
   22.4531   19.4275   22.4225 H   0  0  0  0  0  0  0  0  0  0  0  0
   22.6756   21.0266   22.0960 H   0  0  0  0  0  0  0  0  0  0  0  0
   20.6891   20.5757   22.6927 C   0  0  0  0  0  0  0  0  0  0  0  0
   20.3500   20.4419   21.6643 H   0  0  0  0  0  0  0  0  0  0  0  0
   20.4931   21.6126   22.9790 H   0  0  0  0  0  0  0  0  0  0  0  0
   19.9153   19.6345   23.6404 C   0  0  0  0  0  0  0  0  0  0  0  0
   20.2921   19.7927   24.6596 H   0  0  0  0  0  0  0  0  0  0  0  0
   18.8579   19.9294   23.6621 H   0  0  0  0  0  0  0  0  0  0  0  0
   20.0279   18.1257   23.2922 C   0  0  0  0  0  0  0  0  0  0  0  0
   19.8239   17.5531   24.2076 H   0  0  0  0  0  0  0  0  0  0  0  0
   21.0572   17.8689   23.0106 H   0  0  0  0  0  0  0  0  0  0  0  0
   19.0413   17.6273   22.2050 C   0  0  0  0  0  0  0  0  0  0  0  0
   19.1513   16.5375   22.1137 H   0  0  0  0  0  0  0  0  0  0  0  0
   18.0074   17.8001   22.5352 H   0  0  0  0  0  0  0  0  0  0  0  0
   19.2475   18.2593   20.8107 C   0  0  0  0  0  0  0  0  0  0  0  0
   20.2987   18.2051   20.4995 H   0  0  0  0  0  0  0  0  0  0  0  0
   18.6479   17.7297   20.0590 H   0  0  0  0  0  0  0  0  0  0  0  0
   18.9292   19.3083   20.7965 H   0  0  0  0  0  0  0  0  0  0  0  0
  1  2  1  0  0  0  0
  1  3  1  0  0  0  0
  1  4  1  0  0  0  0
  1  5  1  0  0  0  0
  5  6  1  0  0  0  0
  5  7  1  0  0  0  0
  5  8  1  0  0  0  0
  8  9  1  0  0  0  0
  8 10  1  0  0  0  0
  8 11  1  0  0  0  0
 11 12  1  0  0  0  0
 11 13  1  0  0  0  0
 11 14  1  0  0  0  0
 14 15  1  0  0  0  0
 14 16  1  0  0  0  0
 14 17  1  0  0  0  0
 17 18  1  0  0  0  0
 17 19  1  0  0  0  0
 17 20  1  0  0  0  0
M  END
> <VConfSearch Rank>
413

> <Conf_Id>
80

> <Delta U+W>
2.920

> <U+W>
-8.857

> <U>
49.434

> <W>
-58.292

> <W(PB)>
-60.170

> <W(SA)>
1.879

> <Valence>
3.798

> <Coulomb>
45.253

> <VdW>
0.384

> <VdW6>
-5.595

> <VdW12>
5.979

> <Bond>
0.198

> <Angle>
1.368

> <Pdih>
2.231

> <Idih>
0.000

> <Tether>
0.000

$$$$
VeraChem MOL file


 20 19  0  0  0  0  0  0  0  0999 V2000     
   20.1242   20.8247   20.8105 N   0  3  0  0  0  0  0  0  0  0  0  0
   19.2819   21.4010   20.7182 H   0  0  0  0  0  0  0  0  0  0  0  0
   20.8516   21.2664   20.2385 H   0  0  0  0  0  0  0  0  0  0  0  0
   19.9183   19.9170   20.3835 H   0  0  0  0  0  0  0  0  0  0  0  0
   20.5549   20.6822   22.2575 C   0  0  0  0  0  0  0  0  0  0  0  0
   20.7965   21.6821   22.6282 H   0  0  0  0  0  0  0  0  0  0  0  0
   21.4689   20.0867   22.2791 H   0  0  0  0  0  0  0  0  0  0  0  0
   19.4806   20.0510   23.1687 C   0  0  0  0  0  0  0  0  0  0  0  0
   19.8143   20.1022   24.2135 H   0  0  0  0  0  0  0  0  0  0  0  0
   18.5774   20.6729   23.1111 H   0  0  0  0  0  0  0  0  0  0  0  0
   19.1056   18.5870   22.8131 C   0  0  0  0  0  0  0  0  0  0  0  0
   19.0217   18.4618   21.7259 H   0  0  0  0  0  0  0  0  0  0  0  0
   18.0989   18.3923   23.2082 H   0  0  0  0  0  0  0  0  0  0  0  0
   20.0500   17.5062   23.3995 C   0  0  0  0  0  0  0  0  0  0  0  0
   20.0559   17.5746   24.4963 H   0  0  0  0  0  0  0  0  0  0  0  0
   19.6328   16.5180   23.1603 H   0  0  0  0  0  0  0  0  0  0  0  0
   21.5011   17.5660   22.8734 C   0  0  0  0  0  0  0  0  0  0  0  0
   22.0373   18.4326   23.2778 H   0  0  0  0  0  0  0  0  0  0  0  0
   22.0561   16.6705   23.1815 H   0  0  0  0  0  0  0  0  0  0  0  0
   21.5265   17.6151   21.7772 H   0  0  0  0  0  0  0  0  0  0  0  0
  1  2  1  0  0  0  0
  1  3  1  0  0  0  0
  1  4  1  0  0  0  0
  1  5  1  0  0  0  0
  5  6  1  0  0  0  0
  5  7  1  0  0  0  0
  5  8  1  0  0  0  0
  8  9  1  0  0  0  0
  8 10  1  0  0  0  0
  8 11  1  0  0  0  0
 11 12  1  0  0  0  0
 11 13  1  0  0  0  0
 11 14  1  0  0  0  0
 14 15  1  0  0  0  0
 14 16  1  0  0  0  0
 14 17  1  0  0  0  0
 17 18  1  0  0  0  0
 17 19  1  0  0  0  0
 17 20  1  0  0  0  0
M  END
> <VConfSearch Rank>
414

> <Conf_Id>
65

> <Delta U+W>
2.949

> <U+W>
-8.829

> <U>
49.435

> <W>
-58.263

> <W(PB)>
-60.125

> <W(SA)>
1.862

> <Valence>
3.797

> <Coulomb>
45.253

> <VdW>
0.384

> <VdW6>
-5.596

> <VdW12>
5.980

> <Bond>
0.198

> <Angle>
1.369

> <Pdih>
2.230

> <Idih>
0.000

> <Tether>
0.000

$$$$
VeraChem MOL file


 20 19  0  0  0  0  0  0  0  0999 V2000     
   19.7336   21.0242   21.7229 N   0  3  0  0  0  0  0  0  0  0  0  0
   19.3544   21.4282   20.8600 H   0  0  0  0  0  0  0  0  0  0  0  0
   18.9996   20.4407   22.1358 H   0  0  0  0  0  0  0  0  0  0  0  0
   19.9027   21.8030   22.3673 H   0  0  0  0  0  0  0  0  0  0  0  0
   20.9956   20.2244   21.4638 C   0  0  0  0  0  0  0  0  0  0  0  0
   21.7259   20.9121   21.0286 H   0  0  0  0  0  0  0  0  0  0  0  0
   20.7749   19.4510   20.7233 H   0  0  0  0  0  0  0  0  0  0  0  0
   21.6009   19.5817   22.7283 C   0  0  0  0  0  0  0  0  0  0  0  0
   22.6668   19.4030   22.5341 H   0  0  0  0  0  0  0  0  0  0  0  0
   21.5652   20.2957   23.5618 H   0  0  0  0  0  0  0  0  0  0  0  0
   20.9643   18.2310   23.1529 C   0  0  0  0  0  0  0  0  0  0  0  0
   21.5233   17.8646   24.0252 H   0  0  0  0  0  0  0  0  0  0  0  0
   21.1220   17.4792   22.3671 H   0  0  0  0  0  0  0  0  0  0  0  0
   19.4638   18.2928   23.5363 C   0  0  0  0  0  0  0  0  0  0  0  0
   19.2831   17.5852   24.3579 H   0  0  0  0  0  0  0  0  0  0  0  0
   19.2103   19.2828   23.9388 H   0  0  0  0  0  0  0  0  0  0  0  0
   18.5221   17.9119   22.3693 C   0  0  0  0  0  0  0  0  0  0  0  0
   18.6879   18.5273   21.4786 H   0  0  0  0  0  0  0  0  0  0  0  0
   18.6734   16.8644   22.0776 H   0  0  0  0  0  0  0  0  0  0  0  0
   17.4715   18.0229   22.6677 H   0  0  0  0  0  0  0  0  0  0  0  0
  1  2  1  0  0  0  0
  1  3  1  0  0  0  0
  1  4  1  0  0  0  0
  1  5  1  0  0  0  0
  5  6  1  0  0  0  0
  5  7  1  0  0  0  0
  5  8  1  0  0  0  0
  8  9  1  0  0  0  0
  8 10  1  0  0  0  0
  8 11  1  0  0  0  0
 11 12  1  0  0  0  0
 11 13  1  0  0  0  0
 11 14  1  0  0  0  0
 14 15  1  0  0  0  0
 14 16  1  0  0  0  0
 14 17  1  0  0  0  0
 17 18  1  0  0  0  0
 17 19  1  0  0  0  0
 17 20  1  0  0  0  0
M  END
> <VConfSearch Rank>
415

> <Conf_Id>
77

> <Delta U+W>
5.366

> <U+W>
-6.412

> <U>
51.542

> <W>
-57.954

> <W(PB)>
-59.811

> <W(SA)>
1.857

> <Valence>
5.347

> <Coulomb>
45.870

> <VdW>
0.325

> <VdW6>
-6.161

> <VdW12>
6.486

> <Bond>
0.201

> <Angle>
1.484

> <Pdih>
3.662

> <Idih>
0.000

> <Tether>
0.000

$$$$
VeraChem MOL file


 20 19  0  0  0  0  0  0  0  0999 V2000     
   19.7222   17.1793   22.9337 N   0  3  0  0  0  0  0  0  0  0  0  0
   18.9433   17.0880   23.5936 H   0  0  0  0  0  0  0  0  0  0  0  0
   19.3568   17.6349   22.0919 H   0  0  0  0  0  0  0  0  0  0  0  0
   20.0025   16.2287   22.6702 H   0  0  0  0  0  0  0  0  0  0  0  0
   20.8758   17.9623   23.5300 C   0  0  0  0  0  0  0  0  0  0  0  0
   21.7005   17.9730   22.8124 H   0  0  0  0  0  0  0  0  0  0  0  0
   21.2063   17.4174   24.4184 H   0  0  0  0  0  0  0  0  0  0  0  0
   20.5119   19.4062   23.9314 C   0  0  0  0  0  0  0  0  0  0  0  0
   19.5288   19.4196   24.4204 H   0  0  0  0  0  0  0  0  0  0  0  0
   21.2299   19.7308   24.6962 H   0  0  0  0  0  0  0  0  0  0  0  0
   20.5496   20.4431   22.7767 C   0  0  0  0  0  0  0  0  0  0  0  0
   21.5708   20.5236   22.3789 H   0  0  0  0  0  0  0  0  0  0  0  0
   20.3262   21.4271   23.2118 H   0  0  0  0  0  0  0  0  0  0  0  0
   19.5473   20.1909   21.6216 C   0  0  0  0  0  0  0  0  0  0  0  0
   18.6558   19.6683   21.9935 H   0  0  0  0  0  0  0  0  0  0  0  0
   19.1876   21.1617   21.2521 H   0  0  0  0  0  0  0  0  0  0  0  0
   20.1747   19.4339   20.4270 C   0  0  0  0  0  0  0  0  0  0  0  0
   19.4180   19.2284   19.6586 H   0  0  0  0  0  0  0  0  0  0  0  0
   20.9642   20.0369   19.9597 H   0  0  0  0  0  0  0  0  0  0  0  0
   20.6235   18.4799   20.7238 H   0  0  0  0  0  0  0  0  0  0  0  0
  1  2  1  0  0  0  0
  1  3  1  0  0  0  0
  1  4  1  0  0  0  0
  1  5  1  0  0  0  0
  5  6  1  0  0  0  0
  5  7  1  0  0  0  0
  5  8  1  0  0  0  0
  8  9  1  0  0  0  0
  8 10  1  0  0  0  0
  8 11  1  0  0  0  0
 11 12  1  0  0  0  0
 11 13  1  0  0  0  0
 11 14  1  0  0  0  0
 14 15  1  0  0  0  0
 14 16  1  0  0  0  0
 14 17  1  0  0  0  0
 17 18  1  0  0  0  0
 17 19  1  0  0  0  0
 17 20  1  0  0  0  0
M  END
> <VConfSearch Rank>
416

> <Conf_Id>
67

> <Delta U+W>
5.353

> <U+W>
-6.425

> <U>
51.541

> <W>
-57.966

> <W(PB)>
-59.821

> <W(SA)>
1.855

> <Valence>
5.347

> <Coulomb>
45.870

> <VdW>
0.325

> <VdW6>
-6.161

> <VdW12>
6.486

> <Bond>
0.201

> <Angle>
1.485

> <Pdih>
3.662

> <Idih>
0.000

> <Tether>
0.000

$$$$
VeraChem MOL file


 20 19  0  0  0  0  0  0  0  0999 V2000     
   17.8566   17.3332   21.1030 N   0  3  0  0  0  0  0  0  0  0  0  0
   17.2628   18.0958   20.7620 H   0  0  0  0  0  0  0  0  0  0  0  0
   17.8017   16.5806   20.4087 H   0  0  0  0  0  0  0  0  0  0  0  0
   17.4256   16.9769   21.9619 H   0  0  0  0  0  0  0  0  0  0  0  0
   19.2848   17.7857   21.3313 C   0  0  0  0  0  0  0  0  0  0  0  0
   19.6893   18.1226   20.3729 H   0  0  0  0  0  0  0  0  0  0  0  0
   19.8642   16.9199   21.6631 H   0  0  0  0  0  0  0  0  0  0  0  0
   19.4026   18.9163   22.3692 C   0  0  0  0  0  0  0  0  0  0  0  0
   18.8064   19.7777   22.0398 H   0  0  0  0  0  0  0  0  0  0  0  0
   18.9807   18.5792   23.3254 H   0  0  0  0  0  0  0  0  0  0  0  0
   20.8721   19.3475   22.5720 C   0  0  0  0  0  0  0  0  0  0  0  0
   21.2926   19.6792   21.6123 H   0  0  0  0  0  0  0  0  0  0  0  0
   21.4667   18.4822   22.8965 H   0  0  0  0  0  0  0  0  0  0  0  0
   21.0027   20.4826   23.6123 C   0  0  0  0  0  0  0  0  0  0  0  0
   20.4110   21.3511   23.2904 H   0  0  0  0  0  0  0  0  0  0  0  0
   20.5851   20.1542   24.5745 H   0  0  0  0  0  0  0  0  0  0  0  0
   22.4725   20.9102   23.8115 C   0  0  0  0  0  0  0  0  0  0  0  0
   22.9081   21.2765   22.8727 H   0  0  0  0  0  0  0  0  0  0  0  0
   22.5446   21.7164   24.5531 H   0  0  0  0  0  0  0  0  0  0  0  0
   23.0836   20.0703   24.1670 H   0  0  0  0  0  0  0  0  0  0  0  0
  1  2  1  0  0  0  0
  1  3  1  0  0  0  0
  1  4  1  0  0  0  0
  1  5  1  0  0  0  0
  5  6  1  0  0  0  0
  5  7  1  0  0  0  0
  5  8  1  0  0  0  0
  8  9  1  0  0  0  0
  8 10  1  0  0  0  0
  8 11  1  0  0  0  0
 11 12  1  0  0  0  0
 11 13  1  0  0  0  0
 11 14  1  0  0  0  0
 14 15  1  0  0  0  0
 14 16  1  0  0  0  0
 14 17  1  0  0  0  0
 17 18  1  0  0  0  0
 17 19  1  0  0  0  0
 17 20  1  0  0  0  0
M  END
> <VConfSearch Rank>
417

> <Conf_Id>
72

> <Delta U+W>
0.000

> <U+W>
-11.778

> <U>
45.772

> <W>
-57.550

> <W(PB)>
-59.511

> <W(SA)>
1.961

> <Valence>
1.299

> <Coulomb>
44.177

> <VdW>
0.297

> <VdW6>
-3.490

> <VdW12>
3.786

> <Bond>
0.096

> <Angle>
0.381

> <Pdih>
0.822

> <Idih>
0.000

> <Tether>
0.000

$$$$
VeraChem MOL file


 20 19  0  0  0  0  0  0  0  0999 V2000     
   17.7473   20.8242   21.5985 N   0  3  0  0  0  0  0  0  0  0  0  0
   17.2108   20.5449   22.4259 H   0  0  0  0  0  0  0  0  0  0  0  0
   18.1456   21.7477   21.7952 H   0  0  0  0  0  0  0  0  0  0  0  0
   17.0736   20.9476   20.8353 H   0  0  0  0  0  0  0  0  0  0  0  0
   18.8164   19.8092   21.2471 C   0  0  0  0  0  0  0  0  0  0  0  0
   19.3251   20.1544   20.3429 H   0  0  0  0  0  0  0  0  0  0  0  0
   18.3207   18.8611   21.0213 H   0  0  0  0  0  0  0  0  0  0  0  0
   19.8456   19.6001   22.3724 C   0  0  0  0  0  0  0  0  0  0  0  0
   20.3295   20.5575   22.6068 H   0  0  0  0  0  0  0  0  0  0  0  0
   19.3223   19.2711   23.2791 H   0  0  0  0  0  0  0  0  0  0  0  0
   20.9174   18.5596   21.9701 C   0  0  0  0  0  0  0  0  0  0  0  0
   21.3765   18.8679   21.0203 H   0  0  0  0  0  0  0  0  0  0  0  0
   20.4382   17.5890   21.7803 H   0  0  0  0  0  0  0  0  0  0  0  0
   22.0372   18.3865   23.0249 C   0  0  0  0  0  0  0  0  0  0  0  0
   22.8051   17.7143   22.6170 H   0  0  0  0  0  0  0  0  0  0  0  0
   22.5352   19.3504   23.2003 H   0  0  0  0  0  0  0  0  0  0  0  0
   21.5332   17.8100   24.3677 C   0  0  0  0  0  0  0  0  0  0  0  0
   21.0063   16.8590   24.2166 H   0  0  0  0  0  0  0  0  0  0  0  0
   22.3760   17.6221   25.0455 H   0  0  0  0  0  0  0  0  0  0  0  0
   20.8518   18.5043   24.8748 H   0  0  0  0  0  0  0  0  0  0  0  0
  1  2  1  0  0  0  0
  1  3  1  0  0  0  0
  1  4  1  0  0  0  0
  1  5  1  0  0  0  0
  5  6  1  0  0  0  0
  5  7  1  0  0  0  0
  5  8  1  0  0  0  0
  8  9  1  0  0  0  0
  8 10  1  0  0  0  0
  8 11  1  0  0  0  0
 11 12  1  0  0  0  0
 11 13  1  0  0  0  0
 11 14  1  0  0  0  0
 14 15  1  0  0  0  0
 14 16  1  0  0  0  0
 14 17  1  0  0  0  0
 17 18  1  0  0  0  0
 17 19  1  0  0  0  0
 17 20  1  0  0  0  0
M  END
> <VConfSearch Rank>
418

> <Conf_Id>
42

> <Delta U+W>
0.508

> <U+W>
-11.270

> <U>
46.486

> <W>
-57.756

> <W(PB)>
-59.705

> <W(SA)>
1.949

> <Valence>
1.806

> <Coulomb>
44.248

> <VdW>
0.433

> <VdW6>
-4.089

> <VdW12>
4.522

> <Bond>
0.131

> <Angle>
0.628

> <Pdih>
1.047

> <Idih>
0.000

> <Tether>
0.000

$$$$
VeraChem MOL file


 20 19  0  0  0  0  0  0  0  0999 V2000     
   17.5841   17.5907   22.9861 N   0  3  0  0  0  0  0  0  0  0  0  0
   17.6249   16.9627   22.1772 H   0  0  0  0  0  0  0  0  0  0  0  0
   17.9972   17.0888   23.7784 H   0  0  0  0  0  0  0  0  0  0  0  0
   16.5919   17.7280   23.2059 H   0  0  0  0  0  0  0  0  0  0  0  0
   18.2886   18.9055   22.7186 C   0  0  0  0  0  0  0  0  0  0  0  0
   18.1800   19.5336   23.6070 H   0  0  0  0  0  0  0  0  0  0  0  0
   17.7790   19.3979   21.8858 H   0  0  0  0  0  0  0  0  0  0  0  0
   19.7814   18.7353   22.3844 C   0  0  0  0  0  0  0  0  0  0  0  0
   20.2787   18.2246   23.2186 H   0  0  0  0  0  0  0  0  0  0  0  0
   19.8864   18.0911   21.5013 H   0  0  0  0  0  0  0  0  0  0  0  0
   20.4586   20.1002   22.1169 C   0  0  0  0  0  0  0  0  0  0  0  0
   20.3941   20.7280   23.0164 H   0  0  0  0  0  0  0  0  0  0  0  0
   19.9005   20.6286   21.3313 H   0  0  0  0  0  0  0  0  0  0  0  0
   21.9373   19.9802   21.6744 C   0  0  0  0  0  0  0  0  0  0  0  0
   22.0041   19.3726   20.7610 H   0  0  0  0  0  0  0  0  0  0  0  0
   22.3072   20.9796   21.4057 H   0  0  0  0  0  0  0  0  0  0  0  0
   22.8586   19.3845   22.7634 C   0  0  0  0  0  0  0  0  0  0  0  0
   22.6033   18.3400   22.9810 H   0  0  0  0  0  0  0  0  0  0  0  0
   23.9056   19.4058   22.4345 H   0  0  0  0  0  0  0  0  0  0  0  0
   22.7888   19.9577   23.6970 H   0  0  0  0  0  0  0  0  0  0  0  0
  1  2  1  0  0  0  0
  1  3  1  0  0  0  0
  1  4  1  0  0  0  0
  1  5  1  0  0  0  0
  5  6  1  0  0  0  0
  5  7  1  0  0  0  0
  5  8  1  0  0  0  0
  8  9  1  0  0  0  0
  8 10  1  0  0  0  0
  8 11  1  0  0  0  0
 11 12  1  0  0  0  0
 11 13  1  0  0  0  0
 11 14  1  0  0  0  0
 14 15  1  0  0  0  0
 14 16  1  0  0  0  0
 14 17  1  0  0  0  0
 17 18  1  0  0  0  0
 17 19  1  0  0  0  0
 17 20  1  0  0  0  0
M  END
> <VConfSearch Rank>
419

> <Conf_Id>
41

> <Delta U+W>
0.515

> <U+W>
-11.263

> <U>
46.486

> <W>
-57.749

> <W(PB)>
-59.685

> <W(SA)>
1.936

> <Valence>
1.806

> <Coulomb>
44.248

> <VdW>
0.433

> <VdW6>
-4.089

> <VdW12>
4.522

> <Bond>
0.131

> <Angle>
0.628

> <Pdih>
1.047

> <Idih>
0.000

> <Tether>
0.000

$$$$
VeraChem MOL file


 20 19  0  0  0  0  0  0  0  0999 V2000     
   18.3854   19.0473   24.5949 N   0  3  0  0  0  0  0  0  0  0  0  0
   17.7931   18.5357   25.2573 H   0  0  0  0  0  0  0  0  0  0  0  0
   19.2875   19.1973   25.0561 H   0  0  0  0  0  0  0  0  0  0  0  0
   17.9564   19.9684   24.4619 H   0  0  0  0  0  0  0  0  0  0  0  0
   18.5381   18.3006   23.2837 C   0  0  0  0  0  0  0  0  0  0  0  0
   17.5362   18.1406   22.8760 H   0  0  0  0  0  0  0  0  0  0  0  0
   18.9775   17.3227   23.4985 H   0  0  0  0  0  0  0  0  0  0  0  0
   19.4003   19.0389   22.2409 C   0  0  0  0  0  0  0  0  0  0  0  0
   19.3490   18.4767   21.3003 H   0  0  0  0  0  0  0  0  0  0  0  0
   18.9662   20.0274   22.0404 H   0  0  0  0  0  0  0  0  0  0  0  0
   20.8782   19.1867   22.6827 C   0  0  0  0  0  0  0  0  0  0  0  0
   21.3124   18.1929   22.8596 H   0  0  0  0  0  0  0  0  0  0  0  0
   20.9213   19.7179   23.6427 H   0  0  0  0  0  0  0  0  0  0  0  0
   21.7519   19.9585   21.6640 C   0  0  0  0  0  0  0  0  0  0  0  0
   21.3292   20.9587   21.4940 H   0  0  0  0  0  0  0  0  0  0  0  0
   22.7472   20.1168   22.1026 H   0  0  0  0  0  0  0  0  0  0  0  0
   21.9157   19.2264   20.3124 C   0  0  0  0  0  0  0  0  0  0  0  0
   20.9628   19.1537   19.7739 H   0  0  0  0  0  0  0  0  0  0  0  0
   22.6184   19.7674   19.6655 H   0  0  0  0  0  0  0  0  0  0  0  0
   22.3077   18.2113   20.4576 H   0  0  0  0  0  0  0  0  0  0  0  0
  1  2  1  0  0  0  0
  1  3  1  0  0  0  0
  1  4  1  0  0  0  0
  1  5  1  0  0  0  0
  5  6  1  0  0  0  0
  5  7  1  0  0  0  0
  5  8  1  0  0  0  0
  8  9  1  0  0  0  0
  8 10  1  0  0  0  0
  8 11  1  0  0  0  0
 11 12  1  0  0  0  0
 11 13  1  0  0  0  0
 11 14  1  0  0  0  0
 14 15  1  0  0  0  0
 14 16  1  0  0  0  0
 14 17  1  0  0  0  0
 17 18  1  0  0  0  0
 17 19  1  0  0  0  0
 17 20  1  0  0  0  0
M  END
> <VConfSearch Rank>
420

> <Conf_Id>
33

> <Delta U+W>
0.703

> <U+W>
-11.075

> <U>
47.080

> <W>
-58.154

> <W(PB)>
-60.053

> <W(SA)>
1.899

> <Valence>
1.943

> <Coulomb>
44.572

> <VdW>
0.565

> <VdW6>
-4.575

> <VdW12>
5.139

> <Bond>
0.158

> <Angle>
0.700

> <Pdih>
1.085

> <Idih>
0.000

> <Tether>
0.000

$$$$
VeraChem MOL file


 20 19  0  0  0  0  0  0  0  0999 V2000     
   22.1982   20.8694   21.8261 N   0  3  0  0  0  0  0  0  0  0  0  0
   23.1940   21.0986   21.7403 H   0  0  0  0  0  0  0  0  0  0  0  0
   21.7039   21.4201   21.1171 H   0  0  0  0  0  0  0  0  0  0  0  0
   21.8917   21.2101   22.7420 H   0  0  0  0  0  0  0  0  0  0  0  0
   21.9470   19.3826   21.6630 C   0  0  0  0  0  0  0  0  0  0  0  0
   22.5185   18.8549   22.4313 H   0  0  0  0  0  0  0  0  0  0  0  0
   22.3379   19.0868   20.6856 H   0  0  0  0  0  0  0  0  0  0  0  0
   20.4605   18.9860   21.7581 C   0  0  0  0  0  0  0  0  0  0  0  0
   19.8865   19.5307   20.9968 H   0  0  0  0  0  0  0  0  0  0  0  0
   20.3782   17.9204   21.5108 H   0  0  0  0  0  0  0  0  0  0  0  0
   19.8606   19.2454   23.1631 C   0  0  0  0  0  0  0  0  0  0  0  0
   19.9785   20.3063   23.4207 H   0  0  0  0  0  0  0  0  0  0  0  0
   20.4258   18.6797   23.9167 H   0  0  0  0  0  0  0  0  0  0  0  0
   18.3581   18.8871   23.2676 C   0  0  0  0  0  0  0  0  0  0  0  0
   17.9879   19.2058   24.2522 H   0  0  0  0  0  0  0  0  0  0  0  0
   17.7863   19.4608   22.5248 H   0  0  0  0  0  0  0  0  0  0  0  0
   18.0702   17.3783   23.0936 C   0  0  0  0  0  0  0  0  0  0  0  0
   18.6544   16.7798   23.8047 H   0  0  0  0  0  0  0  0  0  0  0  0
   17.0078   17.1672   23.2717 H   0  0  0  0  0  0  0  0  0  0  0  0
   18.3075   17.0359   22.0788 H   0  0  0  0  0  0  0  0  0  0  0  0
  1  2  1  0  0  0  0
  1  3  1  0  0  0  0
  1  4  1  0  0  0  0
  1  5  1  0  0  0  0
  5  6  1  0  0  0  0
  5  7  1  0  0  0  0
  5  8  1  0  0  0  0
  8  9  1  0  0  0  0
  8 10  1  0  0  0  0
  8 11  1  0  0  0  0
 11 12  1  0  0  0  0
 11 13  1  0  0  0  0
 11 14  1  0  0  0  0
 14 15  1  0  0  0  0
 14 16  1  0  0  0  0
 14 17  1  0  0  0  0
 17 18  1  0  0  0  0
 17 19  1  0  0  0  0
 17 20  1  0  0  0  0
M  END
> <VConfSearch Rank>
421

> <Conf_Id>
24

> <Delta U+W>
0.847

> <U+W>
-10.931

> <U>
47.080

> <W>
-58.011

> <W(PB)>
-59.914

> <W(SA)>
1.903

> <Valence>
1.943

> <Coulomb>
44.572

> <VdW>
0.565

> <VdW6>
-4.575

> <VdW12>
5.140

> <Bond>
0.158

> <Angle>
0.700

> <Pdih>
1.085

> <Idih>
0.000

> <Tether>
0.000

$$$$
VeraChem MOL file


 20 19  0  0  0  0  0  0  0  0999 V2000     
   22.0849   17.2771   22.4420 N   0  3  0  0  0  0  0  0  0  0  0  0
   22.7820   17.1199   21.7066 H   0  0  0  0  0  0  0  0  0  0  0  0
   22.5752   17.7155   23.2278 H   0  0  0  0  0  0  0  0  0  0  0  0
   21.7739   16.3533   22.7586 H   0  0  0  0  0  0  0  0  0  0  0  0
   20.9295   18.1257   21.9506 C   0  0  0  0  0  0  0  0  0  0  0  0
   20.4733   17.6148   21.0985 H   0  0  0  0  0  0  0  0  0  0  0  0
   21.3370   19.0785   21.6025 H   0  0  0  0  0  0  0  0  0  0  0  0
   19.8634   18.3815   23.0325 C   0  0  0  0  0  0  0  0  0  0  0  0
   19.4910   17.4178   23.4045 H   0  0  0  0  0  0  0  0  0  0  0  0
   20.3223   18.8862   23.8923 H   0  0  0  0  0  0  0  0  0  0  0  0
   18.6648   19.2115   22.5087 C   0  0  0  0  0  0  0  0  0  0  0  0
   17.9408   19.3456   23.3242 H   0  0  0  0  0  0  0  0  0  0  0  0
   18.1427   18.6337   21.7334 H   0  0  0  0  0  0  0  0  0  0  0  0
   19.0383   20.6000   21.9291 C   0  0  0  0  0  0  0  0  0  0  0  0
   19.6792   20.4823   21.0447 H   0  0  0  0  0  0  0  0  0  0  0  0
   18.1208   21.0891   21.5729 H   0  0  0  0  0  0  0  0  0  0  0  0
   19.7311   21.5273   22.9533 C   0  0  0  0  0  0  0  0  0  0  0  0
   19.8894   22.5248   22.5233 H   0  0  0  0  0  0  0  0  0  0  0  0
   19.1190   21.6448   23.8569 H   0  0  0  0  0  0  0  0  0  0  0  0
   20.7125   21.1371   23.2506 H   0  0  0  0  0  0  0  0  0  0  0  0
  1  2  1  0  0  0  0
  1  3  1  0  0  0  0
  1  4  1  0  0  0  0
  1  5  1  0  0  0  0
  5  6  1  0  0  0  0
  5  7  1  0  0  0  0
  5  8  1  0  0  0  0
  8  9  1  0  0  0  0
  8 10  1  0  0  0  0
  8 11  1  0  0  0  0
 11 12  1  0  0  0  0
 11 13  1  0  0  0  0
 11 14  1  0  0  0  0
 14 15  1  0  0  0  0
 14 16  1  0  0  0  0
 14 17  1  0  0  0  0
 17 18  1  0  0  0  0
 17 19  1  0  0  0  0
 17 20  1  0  0  0  0
M  END
> <VConfSearch Rank>
422

> <Conf_Id>
64

> <Delta U+W>
0.707

> <U+W>
-11.070

> <U>
47.077

> <W>
-58.148

> <W(PB)>
-60.054

> <W(SA)>
1.906

> <Valence>
2.039

> <Coulomb>
44.655

> <VdW>
0.383

> <VdW6>
-4.912

> <VdW12>
5.295

> <Bond>
0.159

> <Angle>
0.856

> <Pdih>
1.024

> <Idih>
0.000

> <Tether>
0.000

$$$$
VeraChem MOL file


 20 19  0  0  0  0  0  0  0  0999 V2000     
   18.8016   18.1169   24.6556 N   0  3  0  0  0  0  0  0  0  0  0  0
   18.3252   17.2240   24.4940 H   0  0  0  0  0  0  0  0  0  0  0  0
   19.6696   17.9085   25.1589 H   0  0  0  0  0  0  0  0  0  0  0  0
   18.2097   18.6581   25.2946 H   0  0  0  0  0  0  0  0  0  0  0  0
   19.0616   18.8620   23.3619 C   0  0  0  0  0  0  0  0  0  0  0  0
   19.5411   19.8120   23.6120 H   0  0  0  0  0  0  0  0  0  0  0  0
   18.0964   19.0761   22.8951 H   0  0  0  0  0  0  0  0  0  0  0  0
   19.9493   18.0758   22.3786 C   0  0  0  0  0  0  0  0  0  0  0  0
   20.9151   17.8524   22.8495 H   0  0  0  0  0  0  0  0  0  0  0  0
   19.4789   17.1065   22.1667 H   0  0  0  0  0  0  0  0  0  0  0  0
   20.1725   18.8256   21.0415 C   0  0  0  0  0  0  0  0  0  0  0  0
   19.2079   18.9289   20.5253 H   0  0  0  0  0  0  0  0  0  0  0  0
   20.8006   18.2064   20.3864 H   0  0  0  0  0  0  0  0  0  0  0  0
   20.8158   20.2291   21.1817 C   0  0  0  0  0  0  0  0  0  0  0  0
   20.9091   20.6731   20.1807 H   0  0  0  0  0  0  0  0  0  0  0  0
   20.1507   20.8969   21.7461 H   0  0  0  0  0  0  0  0  0  0  0  0
   22.2110   20.2020   21.8462 C   0  0  0  0  0  0  0  0  0  0  0  0
   22.8897   19.5245   21.3120 H   0  0  0  0  0  0  0  0  0  0  0  0
   22.6608   21.2033   21.8370 H   0  0  0  0  0  0  0  0  0  0  0  0
   22.1527   19.8765   22.8923 H   0  0  0  0  0  0  0  0  0  0  0  0
  1  2  1  0  0  0  0
  1  3  1  0  0  0  0
  1  4  1  0  0  0  0
  1  5  1  0  0  0  0
  5  6  1  0  0  0  0
  5  7  1  0  0  0  0
  5  8  1  0  0  0  0
  8  9  1  0  0  0  0
  8 10  1  0  0  0  0
  8 11  1  0  0  0  0
 11 12  1  0  0  0  0
 11 13  1  0  0  0  0
 11 14  1  0  0  0  0
 14 15  1  0  0  0  0
 14 16  1  0  0  0  0
 14 17  1  0  0  0  0
 17 18  1  0  0  0  0
 17 19  1  0  0  0  0
 17 20  1  0  0  0  0
M  END
> <VConfSearch Rank>
423

> <Conf_Id>
22

> <Delta U+W>
0.731

> <U+W>
-11.047

> <U>
47.078

> <W>
-58.125

> <W(PB)>
-60.031

> <W(SA)>
1.906

> <Valence>
2.039

> <Coulomb>
44.655

> <VdW>
0.383

> <VdW6>
-4.913

> <VdW12>
5.296

> <Bond>
0.159

> <Angle>
0.856

> <Pdih>
1.024

> <Idih>
0.000

> <Tether>
0.000

$$$$
VeraChem MOL file


 20 19  0  0  0  0  0  0  0  0999 V2000     
   22.4872   18.1111   23.4962 N   0  3  0  0  0  0  0  0  0  0  0  0
   22.7633   18.8044   24.1987 H   0  0  0  0  0  0  0  0  0  0  0  0
   22.3307   17.2272   23.9907 H   0  0  0  0  0  0  0  0  0  0  0  0
   23.2974   17.9695   22.8838 H   0  0  0  0  0  0  0  0  0  0  0  0
   21.2627   18.5495   22.7184 C   0  0  0  0  0  0  0  0  0  0  0  0
   21.0423   17.7808   21.9728 H   0  0  0  0  0  0  0  0  0  0  0  0
   21.5147   19.4764   22.1982 H   0  0  0  0  0  0  0  0  0  0  0  0
   20.0294   18.7763   23.6107 C   0  0  0  0  0  0  0  0  0  0  0  0
   19.8611   17.8756   24.2159 H   0  0  0  0  0  0  0  0  0  0  0  0
   20.2347   19.5909   24.3179 H   0  0  0  0  0  0  0  0  0  0  0  0
   18.7319   19.0868   22.8221 C   0  0  0  0  0  0  0  0  0  0  0  0
   17.9089   19.1378   23.5484 H   0  0  0  0  0  0  0  0  0  0  0  0
   18.4857   18.2504   22.1533 H   0  0  0  0  0  0  0  0  0  0  0  0
   18.7531   20.4188   22.0281 C   0  0  0  0  0  0  0  0  0  0  0  0
   17.7213   20.7894   21.9491 H   0  0  0  0  0  0  0  0  0  0  0  0
   19.3072   21.1866   22.5861 H   0  0  0  0  0  0  0  0  0  0  0  0
   19.3180   20.2852   20.5943 C   0  0  0  0  0  0  0  0  0  0  0  0
   20.3767   20.0059   20.5888 H   0  0  0  0  0  0  0  0  0  0  0  0
   18.7635   19.5306   20.0214 H   0  0  0  0  0  0  0  0  0  0  0  0
   19.2289   21.2393   20.0588 H   0  0  0  0  0  0  0  0  0  0  0  0
  1  2  1  0  0  0  0
  1  3  1  0  0  0  0
  1  4  1  0  0  0  0
  1  5  1  0  0  0  0
  5  6  1  0  0  0  0
  5  7  1  0  0  0  0
  5  8  1  0  0  0  0
  8  9  1  0  0  0  0
  8 10  1  0  0  0  0
  8 11  1  0  0  0  0
 11 12  1  0  0  0  0
 11 13  1  0  0  0  0
 11 14  1  0  0  0  0
 14 15  1  0  0  0  0
 14 16  1  0  0  0  0
 14 17  1  0  0  0  0
 17 18  1  0  0  0  0
 17 19  1  0  0  0  0
 17 20  1  0  0  0  0
M  END
> <VConfSearch Rank>
424

> <Conf_Id>
61

> <Delta U+W>
2.669

> <U+W>
-9.108

> <U>
48.916

> <W>
-58.025

> <W(PB)>
-59.935

> <W(SA)>
1.911

> <Valence>
3.785

> <Coulomb>
44.716

> <VdW>
0.415

> <VdW6>
-4.836

> <VdW12>
5.251

> <Bond>
0.175

> <Angle>
1.195

> <Pdih>
2.415

> <Idih>
0.000

> <Tether>
0.000

$$$$
VeraChem MOL file


 20 19  0  0  0  0  0  0  0  0999 V2000     
   18.4197   19.6241   23.8357 N   0  3  0  0  0  0  0  0  0  0  0  0
   17.4007   19.6620   23.9446 H   0  0  0  0  0  0  0  0  0  0  0  0
   18.8230   20.0822   24.6589 H   0  0  0  0  0  0  0  0  0  0  0  0
   18.6567   20.1994   23.0234 H   0  0  0  0  0  0  0  0  0  0  0  0
   18.9159   18.1987   23.6854 C   0  0  0  0  0  0  0  0  0  0  0  0
   18.4113   17.7421   22.8297 H   0  0  0  0  0  0  0  0  0  0  0  0
   18.6096   17.6588   24.5856 H   0  0  0  0  0  0  0  0  0  0  0  0
   20.4450   18.0712   23.5212 C   0  0  0  0  0  0  0  0  0  0  0  0
   20.9563   18.7490   24.2176 H   0  0  0  0  0  0  0  0  0  0  0  0
   20.7298   17.0556   23.8267 H   0  0  0  0  0  0  0  0  0  0  0  0
   20.9590   18.2933   22.0754 C   0  0  0  0  0  0  0  0  0  0  0  0
   20.4809   17.5688   21.4016 H   0  0  0  0  0  0  0  0  0  0  0  0
   22.0337   18.0650   22.0560 H   0  0  0  0  0  0  0  0  0  0  0  0
   20.7428   19.7246   21.5306 C   0  0  0  0  0  0  0  0  0  0  0  0
   19.6711   19.9193   21.3993 H   0  0  0  0  0  0  0  0  0  0  0  0
   21.1237   20.4608   22.2524 H   0  0  0  0  0  0  0  0  0  0  0  0
   21.4491   19.9288   20.1732 C   0  0  0  0  0  0  0  0  0  0  0  0
   21.2781   20.9455   19.7961 H   0  0  0  0  0  0  0  0  0  0  0  0
   22.5333   19.7827   20.2653 H   0  0  0  0  0  0  0  0  0  0  0  0
   21.0718   19.2231   19.4217 H   0  0  0  0  0  0  0  0  0  0  0  0
  1  2  1  0  0  0  0
  1  3  1  0  0  0  0
  1  4  1  0  0  0  0
  1  5  1  0  0  0  0
  5  6  1  0  0  0  0
  5  7  1  0  0  0  0
  5  8  1  0  0  0  0
  8  9  1  0  0  0  0
  8 10  1  0  0  0  0
  8 11  1  0  0  0  0
 11 12  1  0  0  0  0
 11 13  1  0  0  0  0
 11 14  1  0  0  0  0
 14 15  1  0  0  0  0
 14 16  1  0  0  0  0
 14 17  1  0  0  0  0
 17 18  1  0  0  0  0
 17 19  1  0  0  0  0
 17 20  1  0  0  0  0
M  END
> <VConfSearch Rank>
425

> <Conf_Id>
69

> <Delta U+W>
2.811

> <U+W>
-8.967

> <U>
49.216

> <W>
-58.183

> <W(PB)>
-60.064

> <W(SA)>
1.881

> <Valence>
2.929

> <Coulomb>
46.006

> <VdW>
0.281

> <VdW6>
-4.909

> <VdW12>
5.190

> <Bond>
0.156

> <Angle>
0.974

> <Pdih>
1.799

> <Idih>
0.000

> <Tether>
0.000

$$$$
VeraChem MOL file


 20 19  0  0  0  0  0  0  0  0999 V2000     
   20.3666   18.4829   20.2535 N   0  3  0  0  0  0  0  0  0  0  0  0
   20.3623   17.8127   21.0267 H   0  0  0  0  0  0  0  0  0  0  0  0
   19.4446   18.4373   19.8084 H   0  0  0  0  0  0  0  0  0  0  0  0
   21.0459   18.1433   19.5644 H   0  0  0  0  0  0  0  0  0  0  0  0
   20.6962   19.8873   20.7221 C   0  0  0  0  0  0  0  0  0  0  0  0
   20.6910   20.5277   19.8358 H   0  0  0  0  0  0  0  0  0  0  0  0
   21.7091   19.8889   21.1338 H   0  0  0  0  0  0  0  0  0  0  0  0
   19.7080   20.4603   21.7596 C   0  0  0  0  0  0  0  0  0  0  0  0
   19.7803   21.5554   21.7198 H   0  0  0  0  0  0  0  0  0  0  0  0
   18.6766   20.2166   21.4719 H   0  0  0  0  0  0  0  0  0  0  0  0
   19.9799   20.0198   23.2210 C   0  0  0  0  0  0  0  0  0  0  0  0
   19.2958   20.5746   23.8780 H   0  0  0  0  0  0  0  0  0  0  0  0
   20.9953   20.3231   23.5119 H   0  0  0  0  0  0  0  0  0  0  0  0
   19.8005   18.5053   23.4784 C   0  0  0  0  0  0  0  0  0  0  0  0
   18.8270   18.1730   23.0912 H   0  0  0  0  0  0  0  0  0  0  0  0
   20.5750   17.9390   22.9460 H   0  0  0  0  0  0  0  0  0  0  0  0
   19.8927   18.1694   24.9823 C   0  0  0  0  0  0  0  0  0  0  0  0
   19.1084   18.6850   25.5517 H   0  0  0  0  0  0  0  0  0  0  0  0
   19.7731   17.0907   25.1469 H   0  0  0  0  0  0  0  0  0  0  0  0
   20.8658   18.4670   25.3943 H   0  0  0  0  0  0  0  0  0  0  0  0
  1  2  1  0  0  0  0
  1  3  1  0  0  0  0
  1  4  1  0  0  0  0
  1  5  1  0  0  0  0
  5  6  1  0  0  0  0
  5  7  1  0  0  0  0
  5  8  1  0  0  0  0
  8  9  1  0  0  0  0
  8 10  1  0  0  0  0
  8 11  1  0  0  0  0
 11 12  1  0  0  0  0
 11 13  1  0  0  0  0
 11 14  1  0  0  0  0
 14 15  1  0  0  0  0
 14 16  1  0  0  0  0
 14 17  1  0  0  0  0
 17 18  1  0  0  0  0
 17 19  1  0  0  0  0
 17 20  1  0  0  0  0
M  END
> <VConfSearch Rank>
426

> <Conf_Id>
26

> <Delta U+W>
2.809

> <U+W>
-8.969

> <U>
49.216

> <W>
-58.185

> <W(PB)>
-60.088

> <W(SA)>
1.903

> <Valence>
2.929

> <Coulomb>
46.006

> <VdW>
0.281

> <VdW6>
-4.909

> <VdW12>
5.190

> <Bond>
0.156

> <Angle>
0.974

> <Pdih>
1.799

> <Idih>
0.000

> <Tether>
0.000

$$$$
VeraChem MOL file


 20 19  0  0  0  0  0  0  0  0999 V2000     
   19.0948   19.6399   20.3262 N   0  3  0  0  0  0  0  0  0  0  0  0
   19.1766   20.5322   20.8221 H   0  0  0  0  0  0  0  0  0  0  0  0
   19.7103   19.6904   19.5085 H   0  0  0  0  0  0  0  0  0  0  0  0
   18.1341   19.5790   19.9732 H   0  0  0  0  0  0  0  0  0  0  0  0
   19.4420   18.4665   21.2215 C   0  0  0  0  0  0  0  0  0  0  0  0
   19.3036   17.5512   20.6396 H   0  0  0  0  0  0  0  0  0  0  0  0
   18.7314   18.4507   22.0520 H   0  0  0  0  0  0  0  0  0  0  0  0
   20.8824   18.5109   21.7705 C   0  0  0  0  0  0  0  0  0  0  0  0
   21.0721   17.5926   22.3409 H   0  0  0  0  0  0  0  0  0  0  0  0
   21.5881   18.4921   20.9295 H   0  0  0  0  0  0  0  0  0  0  0  0
   21.1805   19.7470   22.6595 C   0  0  0  0  0  0  0  0  0  0  0  0
   21.1486   20.6548   22.0422 H   0  0  0  0  0  0  0  0  0  0  0  0
   22.2127   19.6758   23.0293 H   0  0  0  0  0  0  0  0  0  0  0  0
   20.2237   19.9263   23.8659 C   0  0  0  0  0  0  0  0  0  0  0  0
   20.5112   20.8375   24.4090 H   0  0  0  0  0  0  0  0  0  0  0  0
   19.1967   20.0961   23.5150 H   0  0  0  0  0  0  0  0  0  0  0  0
   20.2458   18.7335   24.8484 C   0  0  0  0  0  0  0  0  0  0  0  0
   21.2653   18.5320   25.2019 H   0  0  0  0  0  0  0  0  0  0  0  0
   19.6224   18.9468   25.7264 H   0  0  0  0  0  0  0  0  0  0  0  0
   19.8567   17.8200   24.3818 H   0  0  0  0  0  0  0  0  0  0  0  0
  1  2  1  0  0  0  0
  1  3  1  0  0  0  0
  1  4  1  0  0  0  0
  1  5  1  0  0  0  0
  5  6  1  0  0  0  0
  5  7  1  0  0  0  0
  5  8  1  0  0  0  0
  8  9  1  0  0  0  0
  8 10  1  0  0  0  0
  8 11  1  0  0  0  0
 11 12  1  0  0  0  0
 11 13  1  0  0  0  0
 11 14  1  0  0  0  0
 14 15  1  0  0  0  0
 14 16  1  0  0  0  0
 14 17  1  0  0  0  0
 17 18  1  0  0  0  0
 17 19  1  0  0  0  0
 17 20  1  0  0  0  0
M  END
> <VConfSearch Rank>
427

> <Conf_Id>
2

> <Delta U+W>
0.994

> <U+W>
-10.784

> <U>
47.562

> <W>
-58.346

> <W(PB)>
-60.221

> <W(SA)>
1.875

> <Valence>
2.149

> <Coulomb>
45.034

> <VdW>
0.378

> <VdW6>
-5.599

> <VdW12>
5.977

> <Bond>
0.185

> <Angle>
0.935

> <Pdih>
1.028

> <Idih>
0.000

> <Tether>
0.000

$$$$
VeraChem MOL file


 20 19  0  0  0  0  0  0  0  0999 V2000     
   22.5588   18.8254   22.1572 N   0  3  0  0  0  0  0  0  0  0  0  0
   22.9380   19.0390   21.2295 H   0  0  0  0  0  0  0  0  0  0  0  0
   22.4112   19.7182   22.6367 H   0  0  0  0  0  0  0  0  0  0  0  0
   23.2917   18.3255   22.6712 H   0  0  0  0  0  0  0  0  0  0  0  0
   21.2791   18.0167   22.0706 C   0  0  0  0  0  0  0  0  0  0  0  0
   20.9472   17.7956   23.0884 H   0  0  0  0  0  0  0  0  0  0  0  0
   21.5163   17.0697   21.5782 H   0  0  0  0  0  0  0  0  0  0  0  0
   20.1488   18.7263   21.2979 C   0  0  0  0  0  0  0  0  0  0  0  0
   20.4800   18.9130   20.2678 H   0  0  0  0  0  0  0  0  0  0  0  0
   19.2927   18.0442   21.2178 H   0  0  0  0  0  0  0  0  0  0  0  0
   19.6909   20.0636   21.9373 C   0  0  0  0  0  0  0  0  0  0  0  0
   18.8660   20.4766   21.3405 H   0  0  0  0  0  0  0  0  0  0  0  0
   20.5047   20.7978   21.8663 H   0  0  0  0  0  0  0  0  0  0  0  0
   19.2392   19.9563   23.4163 C   0  0  0  0  0  0  0  0  0  0  0  0
   20.0787   19.6364   24.0482 H   0  0  0  0  0  0  0  0  0  0  0  0
   18.9593   20.9581   23.7710 H   0  0  0  0  0  0  0  0  0  0  0  0
   18.0409   19.0023   23.6235 C   0  0  0  0  0  0  0  0  0  0  0  0
   18.3075   17.9641   23.3899 H   0  0  0  0  0  0  0  0  0  0  0  0
   17.7039   19.0295   24.6678 H   0  0  0  0  0  0  0  0  0  0  0  0
   17.1924   19.2908   22.9896 H   0  0  0  0  0  0  0  0  0  0  0  0
  1  2  1  0  0  0  0
  1  3  1  0  0  0  0
  1  4  1  0  0  0  0
  1  5  1  0  0  0  0
  5  6  1  0  0  0  0
  5  7  1  0  0  0  0
  5  8  1  0  0  0  0
  8  9  1  0  0  0  0
  8 10  1  0  0  0  0
  8 11  1  0  0  0  0
 11 12  1  0  0  0  0
 11 13  1  0  0  0  0
 11 14  1  0  0  0  0
 14 15  1  0  0  0  0
 14 16  1  0  0  0  0
 14 17  1  0  0  0  0
 17 18  1  0  0  0  0
 17 19  1  0  0  0  0
 17 20  1  0  0  0  0
M  END
> <VConfSearch Rank>
428

> <Conf_Id>
1

> <Delta U+W>
1.032

> <U+W>
-10.746

> <U>
47.562

> <W>
-58.308

> <W(PB)>
-60.184

> <W(SA)>
1.877

> <Valence>
2.149

> <Coulomb>
45.035

> <VdW>
0.378

> <VdW6>
-5.599

> <VdW12>
5.978

> <Bond>
0.185

> <Angle>
0.935

> <Pdih>
1.028

> <Idih>
0.000

> <Tether>
0.000

$$$$
VeraChem MOL file


 20 19  0  0  0  0  0  0  0  0999 V2000     
   17.9188   19.3895   22.5675 N   0  3  0  0  0  0  0  0  0  0  0  0
   17.5347   20.2103   23.0460 H   0  0  0  0  0  0  0  0  0  0  0  0
   18.2439   19.7000   21.6474 H   0  0  0  0  0  0  0  0  0  0  0  0
   17.1375   18.7452   22.4072 H   0  0  0  0  0  0  0  0  0  0  0  0
   19.0304   18.7385   23.3678 C   0  0  0  0  0  0  0  0  0  0  0  0
   19.3697   17.8591   22.8181 H   0  0  0  0  0  0  0  0  0  0  0  0
   18.5985   18.3980   24.3128 H   0  0  0  0  0  0  0  0  0  0  0  0
   20.2183   19.6785   23.6641 C   0  0  0  0  0  0  0  0  0  0  0  0
   19.8340   20.5519   24.2074 H   0  0  0  0  0  0  0  0  0  0  0  0
   20.9140   19.1795   24.3517 H   0  0  0  0  0  0  0  0  0  0  0  0
   20.9889   20.1676   22.4082 C   0  0  0  0  0  0  0  0  0  0  0  0
   21.4983   21.1053   22.6702 H   0  0  0  0  0  0  0  0  0  0  0  0
   20.2905   20.4299   21.6031 H   0  0  0  0  0  0  0  0  0  0  0  0
   22.0668   19.1882   21.8763 C   0  0  0  0  0  0  0  0  0  0  0  0
   22.6021   19.6800   21.0520 H   0  0  0  0  0  0  0  0  0  0  0  0
   22.8178   19.0038   22.6572 H   0  0  0  0  0  0  0  0  0  0  0  0
   21.5143   17.8390   21.3661 C   0  0  0  0  0  0  0  0  0  0  0  0
   20.6812   17.9875   20.6671 H   0  0  0  0  0  0  0  0  0  0  0  0
   22.2984   17.2803   20.8388 H   0  0  0  0  0  0  0  0  0  0  0  0
   21.1712   17.2086   22.1949 H   0  0  0  0  0  0  0  0  0  0  0  0
  1  2  1  0  0  0  0
  1  3  1  0  0  0  0
  1  4  1  0  0  0  0
  1  5  1  0  0  0  0
  5  6  1  0  0  0  0
  5  7  1  0  0  0  0
  5  8  1  0  0  0  0
  8  9  1  0  0  0  0
  8 10  1  0  0  0  0
  8 11  1  0  0  0  0
 11 12  1  0  0  0  0
 11 13  1  0  0  0  0
 11 14  1  0  0  0  0
 14 15  1  0  0  0  0
 14 16  1  0  0  0  0
 14 17  1  0  0  0  0
 17 18  1  0  0  0  0
 17 19  1  0  0  0  0
 17 20  1  0  0  0  0
M  END
> <VConfSearch Rank>
429

> <Conf_Id>
80

> <Delta U+W>
2.920

> <U+W>
-8.857

> <U>
49.434

> <W>
-58.292

> <W(PB)>
-60.170

> <W(SA)>
1.879

> <Valence>
3.798

> <Coulomb>
45.253

> <VdW>
0.384

> <VdW6>
-5.595

> <VdW12>
5.979

> <Bond>
0.198

> <Angle>
1.368

> <Pdih>
2.231

> <Idih>
0.000

> <Tether>
0.000

$$$$
VeraChem MOL file


 20 19  0  0  0  0  0  0  0  0999 V2000     
   20.7445   19.5070   24.7352 N   0  3  0  0  0  0  0  0  0  0  0  0
   21.6839   19.2503   25.0542 H   0  0  0  0  0  0  0  0  0  0  0  0
   20.3149   20.0577   25.4859 H   0  0  0  0  0  0  0  0  0  0  0  0
   20.2050   18.6405   24.6537 H   0  0  0  0  0  0  0  0  0  0  0  0
   20.7825   20.2724   23.4265 C   0  0  0  0  0  0  0  0  0  0  0  0
   21.3358   21.1986   23.6038 H   0  0  0  0  0  0  0  0  0  0  0  0
   19.7578   20.5391   23.1633 H   0  0  0  0  0  0  0  0  0  0  0  0
   21.4501   19.4978   22.2702 C   0  0  0  0  0  0  0  0  0  0  0  0
   21.5561   20.1612   21.4017 H   0  0  0  0  0  0  0  0  0  0  0  0
   22.4723   19.2409   22.5782 H   0  0  0  0  0  0  0  0  0  0  0  0
   20.7121   18.1993   21.8465 C   0  0  0  0  0  0  0  0  0  0  0  0
   20.3662   17.6450   22.7285 H   0  0  0  0  0  0  0  0  0  0  0  0
   21.4432   17.5416   21.3563 H   0  0  0  0  0  0  0  0  0  0  0  0
   19.5373   18.4050   20.8558 C   0  0  0  0  0  0  0  0  0  0  0  0
   19.9078   18.8744   19.9338 H   0  0  0  0  0  0  0  0  0  0  0  0
   19.1586   17.4164   20.5608 H   0  0  0  0  0  0  0  0  0  0  0  0
   18.3604   19.2334   21.4167 C   0  0  0  0  0  0  0  0  0  0  0  0
   18.6277   20.2921   21.5145 H   0  0  0  0  0  0  0  0  0  0  0  0
   17.4984   19.1793   20.7392 H   0  0  0  0  0  0  0  0  0  0  0  0
   18.0398   18.8582   22.3972 H   0  0  0  0  0  0  0  0  0  0  0  0
  1  2  1  0  0  0  0
  1  3  1  0  0  0  0
  1  4  1  0  0  0  0
  1  5  1  0  0  0  0
  5  6  1  0  0  0  0
  5  7  1  0  0  0  0
  5  8  1  0  0  0  0
  8  9  1  0  0  0  0
  8 10  1  0  0  0  0
  8 11  1  0  0  0  0
 11 12  1  0  0  0  0
 11 13  1  0  0  0  0
 11 14  1  0  0  0  0
 14 15  1  0  0  0  0
 14 16  1  0  0  0  0
 14 17  1  0  0  0  0
 17 18  1  0  0  0  0
 17 19  1  0  0  0  0
 17 20  1  0  0  0  0
M  END
> <VConfSearch Rank>
430

> <Conf_Id>
65

> <Delta U+W>
2.949

> <U+W>
-8.829

> <U>
49.435

> <W>
-58.263

> <W(PB)>
-60.125

> <W(SA)>
1.862

> <Valence>
3.797

> <Coulomb>
45.253

> <VdW>
0.384

> <VdW6>
-5.596

> <VdW12>
5.980

> <Bond>
0.198

> <Angle>
1.369

> <Pdih>
2.230

> <Idih>
0.000

> <Tether>
0.000

$$$$
VeraChem MOL file


 20 19  0  0  0  0  0  0  0  0999 V2000     
   19.0206   18.1091   21.2536 N   0  3  0  0  0  0  0  0  0  0  0  0
   18.0421   17.8136   21.1705 H   0  0  0  0  0  0  0  0  0  0  0  0
   19.0396   19.1304   21.1736 H   0  0  0  0  0  0  0  0  0  0  0  0
   19.5165   17.7302   20.4406 H   0  0  0  0  0  0  0  0  0  0  0  0
   19.6408   17.6449   22.5573 C   0  0  0  0  0  0  0  0  0  0  0  0
   19.5850   16.5530   22.5666 H   0  0  0  0  0  0  0  0  0  0  0  0
   19.0370   18.0224   23.3869 H   0  0  0  0  0  0  0  0  0  0  0  0
   21.1103   18.0755   22.7404 C   0  0  0  0  0  0  0  0  0  0  0  0
   21.5754   17.3800   23.4517 H   0  0  0  0  0  0  0  0  0  0  0  0
   21.6561   17.9459   21.7964 H   0  0  0  0  0  0  0  0  0  0  0  0
   21.3148   19.5152   23.2838 C   0  0  0  0  0  0  0  0  0  0  0  0
   22.3953   19.6656   23.4159 H   0  0  0  0  0  0  0  0  0  0  0  0
   20.8819   19.6006   24.2902 H   0  0  0  0  0  0  0  0  0  0  0  0
   20.7797   20.6522   22.3764 C   0  0  0  0  0  0  0  0  0  0  0  0
   21.4601   21.5119   22.4548 H   0  0  0  0  0  0  0  0  0  0  0  0
   20.8091   20.3481   21.3214 H   0  0  0  0  0  0  0  0  0  0  0  0
   19.3639   21.1323   22.7749 C   0  0  0  0  0  0  0  0  0  0  0  0
   18.6335   20.3164   22.7918 H   0  0  0  0  0  0  0  0  0  0  0  0
   19.3767   21.5825   23.7762 H   0  0  0  0  0  0  0  0  0  0  0  0
   19.0030   21.8965   22.0742 H   0  0  0  0  0  0  0  0  0  0  0  0
  1  2  1  0  0  0  0
  1  3  1  0  0  0  0
  1  4  1  0  0  0  0
  1  5  1  0  0  0  0
  5  6  1  0  0  0  0
  5  7  1  0  0  0  0
  5  8  1  0  0  0  0
  8  9  1  0  0  0  0
  8 10  1  0  0  0  0
  8 11  1  0  0  0  0
 11 12  1  0  0  0  0
 11 13  1  0  0  0  0
 11 14  1  0  0  0  0
 14 15  1  0  0  0  0
 14 16  1  0  0  0  0
 14 17  1  0  0  0  0
 17 18  1  0  0  0  0
 17 19  1  0  0  0  0
 17 20  1  0  0  0  0
M  END
> <VConfSearch Rank>
431

> <Conf_Id>
77

> <Delta U+W>
5.366

> <U+W>
-6.412

> <U>
51.542

> <W>
-57.954

> <W(PB)>
-59.811

> <W(SA)>
1.857

> <Valence>
5.347

> <Coulomb>
45.870

> <VdW>
0.325

> <VdW6>
-6.161

> <VdW12>
6.486

> <Bond>
0.201

> <Angle>
1.484

> <Pdih>
3.662

> <Idih>
0.000

> <Tether>
0.000

$$$$
VeraChem MOL file


 20 19  0  0  0  0  0  0  0  0999 V2000     
   18.8562   19.5762   21.1216 N   0  3  0  0  0  0  0  0  0  0  0  0
   19.2042   19.6692   20.1621 H   0  0  0  0  0  0  0  0  0  0  0  0
   18.9817   18.5976   21.3980 H   0  0  0  0  0  0  0  0  0  0  0  0
   17.8475   19.7590   21.0919 H   0  0  0  0  0  0  0  0  0  0  0  0
   19.5716   20.5157   22.0730 C   0  0  0  0  0  0  0  0  0  0  0  0
   19.1189   20.4231   23.0638 H   0  0  0  0  0  0  0  0  0  0  0  0
   19.3932   21.5323   21.7123 H   0  0  0  0  0  0  0  0  0  0  0  0
   21.0919   20.2743   22.1669 C   0  0  0  0  0  0  0  0  0  0  0  0
   21.5018   20.0913   21.1648 H   0  0  0  0  0  0  0  0  0  0  0  0
   21.5568   21.2067   22.5136 H   0  0  0  0  0  0  0  0  0  0  0  0
   21.5230   19.1415   23.1368 C   0  0  0  0  0  0  0  0  0  0  0  0
   21.2269   19.3952   24.1642 H   0  0  0  0  0  0  0  0  0  0  0  0
   22.6215   19.1177   23.1460 H   0  0  0  0  0  0  0  0  0  0  0  0
   21.0156   17.7230   22.7721 C   0  0  0  0  0  0  0  0  0  0  0  0
   20.8832   17.6296   21.6858 H   0  0  0  0  0  0  0  0  0  0  0  0
   21.7940   16.9938   23.0382 H   0  0  0  0  0  0  0  0  0  0  0  0
   19.7220   17.3284   23.5236 C   0  0  0  0  0  0  0  0  0  0  0  0
   19.3689   16.3424   23.1946 H   0  0  0  0  0  0  0  0  0  0  0  0
   19.9063   17.2692   24.6042 H   0  0  0  0  0  0  0  0  0  0  0  0
   18.9107   18.0476   23.3684 H   0  0  0  0  0  0  0  0  0  0  0  0
  1  2  1  0  0  0  0
  1  3  1  0  0  0  0
  1  4  1  0  0  0  0
  1  5  1  0  0  0  0
  5  6  1  0  0  0  0
  5  7  1  0  0  0  0
  5  8  1  0  0  0  0
  8  9  1  0  0  0  0
  8 10  1  0  0  0  0
  8 11  1  0  0  0  0
 11 12  1  0  0  0  0
 11 13  1  0  0  0  0
 11 14  1  0  0  0  0
 14 15  1  0  0  0  0
 14 16  1  0  0  0  0
 14 17  1  0  0  0  0
 17 18  1  0  0  0  0
 17 19  1  0  0  0  0
 17 20  1  0  0  0  0
M  END
> <VConfSearch Rank>
432

> <Conf_Id>
67

> <Delta U+W>
5.353

> <U+W>
-6.425

> <U>
51.541

> <W>
-57.966

> <W(PB)>
-59.821

> <W(SA)>
1.855

> <Valence>
5.347

> <Coulomb>
45.870

> <VdW>
0.325

> <VdW6>
-6.161

> <VdW12>
6.486

> <Bond>
0.201

> <Angle>
1.485

> <Pdih>
3.662

> <Idih>
0.000

> <Tether>
0.000

$$$$
VeraChem MOL file


 20 19  0  0  0  0  0  0  0  0999 V2000     
   18.3607   16.6903   21.3731 N   0  3  0  0  0  0  0  0  0  0  0  0
   17.4383   17.0920   21.5688 H   0  0  0  0  0  0  0  0  0  0  0  0
   18.2716   16.1504   20.5057 H   0  0  0  0  0  0  0  0  0  0  0  0
   18.5619   16.0193   22.1212 H   0  0  0  0  0  0  0  0  0  0  0  0
   19.4319   17.7568   21.2651 C   0  0  0  0  0  0  0  0  0  0  0  0
   19.1696   18.4155   20.4327 H   0  0  0  0  0  0  0  0  0  0  0  0
   20.3775   17.2624   21.0267 H   0  0  0  0  0  0  0  0  0  0  0  0
   19.5913   18.5865   22.5517 C   0  0  0  0  0  0  0  0  0  0  0  0
   18.6351   19.0682   22.7961 H   0  0  0  0  0  0  0  0  0  0  0  0
   19.8388   17.9191   23.3880 H   0  0  0  0  0  0  0  0  0  0  0  0
   20.6913   19.6606   22.3999 C   0  0  0  0  0  0  0  0  0  0  0  0
   20.4430   20.3233   21.5590 H   0  0  0  0  0  0  0  0  0  0  0  0
   21.6453   19.1755   22.1503 H   0  0  0  0  0  0  0  0  0  0  0  0
   20.8602   20.5001   23.6860 C   0  0  0  0  0  0  0  0  0  0  0  0
   19.9085   20.9888   23.9381 H   0  0  0  0  0  0  0  0  0  0  0  0
   21.1108   19.8413   24.5293 H   0  0  0  0  0  0  0  0  0  0  0  0
   21.9601   21.5719   23.5296 C   0  0  0  0  0  0  0  0  0  0  0  0
   21.7206   22.2678   22.7150 H   0  0  0  0  0  0  0  0  0  0  0  0
   22.0650   22.1573   24.4523 H   0  0  0  0  0  0  0  0  0  0  0  0
   22.9323   21.1112   23.3109 H   0  0  0  0  0  0  0  0  0  0  0  0
  1  2  1  0  0  0  0
  1  3  1  0  0  0  0
  1  4  1  0  0  0  0
  1  5  1  0  0  0  0
  5  6  1  0  0  0  0
  5  7  1  0  0  0  0
  5  8  1  0  0  0  0
  8  9  1  0  0  0  0
  8 10  1  0  0  0  0
  8 11  1  0  0  0  0
 11 12  1  0  0  0  0
 11 13  1  0  0  0  0
 11 14  1  0  0  0  0
 14 15  1  0  0  0  0
 14 16  1  0  0  0  0
 14 17  1  0  0  0  0
 17 18  1  0  0  0  0
 17 19  1  0  0  0  0
 17 20  1  0  0  0  0
M  END
> <VConfSearch Rank>
433

> <Conf_Id>
72

> <Delta U+W>
0.000

> <U+W>
-11.778

> <U>
45.772

> <W>
-57.550

> <W(PB)>
-59.511

> <W(SA)>
1.961

> <Valence>
1.299

> <Coulomb>
44.177

> <VdW>
0.297

> <VdW6>
-3.490

> <VdW12>
3.786

> <Bond>
0.096

> <Angle>
0.381

> <Pdih>
0.822

> <Idih>
0.000

> <Tether>
0.000

$$$$
VeraChem MOL file


 20 19  0  0  0  0  0  0  0  0999 V2000     
   17.7270   19.3693   24.3138 N   0  3  0  0  0  0  0  0  0  0  0  0
   17.3442   18.4916   23.9482 H   0  0  0  0  0  0  0  0  0  0  0  0
   18.2120   19.1453   25.1884 H   0  0  0  0  0  0  0  0  0  0  0  0
   16.9275   19.9621   24.5607 H   0  0  0  0  0  0  0  0  0  0  0  0
   18.6434   20.0473   23.3153 C   0  0  0  0  0  0  0  0  0  0  0  0
   18.9882   20.9861   23.7572 H   0  0  0  0  0  0  0  0  0  0  0  0
   18.0560   20.2831   22.4238 H   0  0  0  0  0  0  0  0  0  0  0  0
   19.8557   19.1838   22.9229 C   0  0  0  0  0  0  0  0  0  0  0  0
   20.4338   18.9361   23.8230 H   0  0  0  0  0  0  0  0  0  0  0  0
   19.4981   18.2377   22.4973 H   0  0  0  0  0  0  0  0  0  0  0  0
   20.7633   19.9150   21.9057 C   0  0  0  0  0  0  0  0  0  0  0  0
   21.0485   20.8926   22.3189 H   0  0  0  0  0  0  0  0  0  0  0  0
   20.1976   20.1218   20.9866 H   0  0  0  0  0  0  0  0  0  0  0  0
   22.0530   19.1336   21.5550 C   0  0  0  0  0  0  0  0  0  0  0  0
   22.6846   19.7650   20.9145 H   0  0  0  0  0  0  0  0  0  0  0  0
   22.6339   18.9454   22.4688 H   0  0  0  0  0  0  0  0  0  0  0  0
   21.7832   17.7973   20.8262 C   0  0  0  0  0  0  0  0  0  0  0  0
   21.1794   17.9546   19.9230 H   0  0  0  0  0  0  0  0  0  0  0  0
   22.7278   17.3292   20.5203 H   0  0  0  0  0  0  0  0  0  0  0  0
   21.2567   17.0842   21.4724 H   0  0  0  0  0  0  0  0  0  0  0  0
  1  2  1  0  0  0  0
  1  3  1  0  0  0  0
  1  4  1  0  0  0  0
  1  5  1  0  0  0  0
  5  6  1  0  0  0  0
  5  7  1  0  0  0  0
  5  8  1  0  0  0  0
  8  9  1  0  0  0  0
  8 10  1  0  0  0  0
  8 11  1  0  0  0  0
 11 12  1  0  0  0  0
 11 13  1  0  0  0  0
 11 14  1  0  0  0  0
 14 15  1  0  0  0  0
 14 16  1  0  0  0  0
 14 17  1  0  0  0  0
 17 18  1  0  0  0  0
 17 19  1  0  0  0  0
 17 20  1  0  0  0  0
M  END
> <VConfSearch Rank>
434

> <Conf_Id>
42

> <Delta U+W>
0.508

> <U+W>
-11.270

> <U>
46.486

> <W>
-57.756

> <W(PB)>
-59.705

> <W(SA)>
1.949

> <Valence>
1.806

> <Coulomb>
44.248

> <VdW>
0.433

> <VdW6>
-4.089

> <VdW12>
4.522

> <Bond>
0.131

> <Angle>
0.628

> <Pdih>
1.047

> <Idih>
0.000

> <Tether>
0.000

$$$$
VeraChem MOL file


 20 19  0  0  0  0  0  0  0  0999 V2000     
   17.1861   19.3383   22.8246 N   0  3  0  0  0  0  0  0  0  0  0  0
   16.9187   18.4235   22.4477 H   0  0  0  0  0  0  0  0  0  0  0  0
   17.2690   19.2329   23.8407 H   0  0  0  0  0  0  0  0  0  0  0  0
   16.3977   19.9716   22.6549 H   0  0  0  0  0  0  0  0  0  0  0  0
   18.4675   19.8549   22.2020 C   0  0  0  0  0  0  0  0  0  0  0  0
   18.6750   20.8413   22.6257 H   0  0  0  0  0  0  0  0  0  0  0  0
   18.2977   19.9715   21.1282 H   0  0  0  0  0  0  0  0  0  0  0  0
   19.6723   18.9264   22.4379 C   0  0  0  0  0  0  0  0  0  0  0  0
   19.8223   18.8025   23.5178 H   0  0  0  0  0  0  0  0  0  0  0  0
   19.4534   17.9328   22.0249 H   0  0  0  0  0  0  0  0  0  0  0  0
   20.9558   19.4909   21.7842 C   0  0  0  0  0  0  0  0  0  0  0  0
   21.2008   20.4648   22.2303 H   0  0  0  0  0  0  0  0  0  0  0  0
   20.7615   19.6797   20.7191 H   0  0  0  0  0  0  0  0  0  0  0  0
   22.1762   18.5458   21.9021 C   0  0  0  0  0  0  0  0  0  0  0  0
   21.9438   17.5782   21.4358 H   0  0  0  0  0  0  0  0  0  0  0  0
   23.0092   18.9719   21.3255 H   0  0  0  0  0  0  0  0  0  0  0  0
   22.6422   18.3221   23.3590 C   0  0  0  0  0  0  0  0  0  0  0  0
   21.8861   17.7875   23.9470 H   0  0  0  0  0  0  0  0  0  0  0  0
   23.5609   17.7218   23.3804 H   0  0  0  0  0  0  0  0  0  0  0  0
   22.8542   19.2770   23.8571 H   0  0  0  0  0  0  0  0  0  0  0  0
  1  2  1  0  0  0  0
  1  3  1  0  0  0  0
  1  4  1  0  0  0  0
  1  5  1  0  0  0  0
  5  6  1  0  0  0  0
  5  7  1  0  0  0  0
  5  8  1  0  0  0  0
  8  9  1  0  0  0  0
  8 10  1  0  0  0  0
  8 11  1  0  0  0  0
 11 12  1  0  0  0  0
 11 13  1  0  0  0  0
 11 14  1  0  0  0  0
 14 15  1  0  0  0  0
 14 16  1  0  0  0  0
 14 17  1  0  0  0  0
 17 18  1  0  0  0  0
 17 19  1  0  0  0  0
 17 20  1  0  0  0  0
M  END
> <VConfSearch Rank>
435

> <Conf_Id>
41

> <Delta U+W>
0.515

> <U+W>
-11.263

> <U>
46.486

> <W>
-57.749

> <W(PB)>
-59.685

> <W(SA)>
1.936

> <Valence>
1.806

> <Coulomb>
44.248

> <VdW>
0.433

> <VdW6>
-4.089

> <VdW12>
4.522

> <Bond>
0.131

> <Angle>
0.628

> <Pdih>
1.047

> <Idih>
0.000

> <Tether>
0.000

$$$$
VeraChem MOL file


 20 19  0  0  0  0  0  0  0  0999 V2000     
   17.8271   20.2782   21.4898 N   0  3  0  0  0  0  0  0  0  0  0  0
   17.3302   21.0234   20.9908 H   0  0  0  0  0  0  0  0  0  0  0  0
   18.0099   19.5345   20.8097 H   0  0  0  0  0  0  0  0  0  0  0  0
   17.1760   19.8997   22.1848 H   0  0  0  0  0  0  0  0  0  0  0  0
   19.1050   20.7851   22.1303 C   0  0  0  0  0  0  0  0  0  0  0  0
   18.8348   21.6011   22.8060 H   0  0  0  0  0  0  0  0  0  0  0  0
   19.7418   21.1943   21.3412 H   0  0  0  0  0  0  0  0  0  0  0  0
   19.8797   19.7088   22.9160 C   0  0  0  0  0  0  0  0  0  0  0  0
   20.7135   20.2010   23.4319 H   0  0  0  0  0  0  0  0  0  0  0  0
   19.2321   19.2875   23.6963 H   0  0  0  0  0  0  0  0  0  0  0  0
   20.4214   18.5774   22.0063 C   0  0  0  0  0  0  0  0  0  0  0  0
   21.0864   19.0036   21.2423 H   0  0  0  0  0  0  0  0  0  0  0  0
   19.5868   18.1126   21.4648 H   0  0  0  0  0  0  0  0  0  0  0  0
   21.1711   17.4675   22.7829 C   0  0  0  0  0  0  0  0  0  0  0  0
   20.5056   17.0285   23.5393 H   0  0  0  0  0  0  0  0  0  0  0  0
   21.4194   16.6557   22.0848 H   0  0  0  0  0  0  0  0  0  0  0  0
   22.4728   17.9581   23.4570 C   0  0  0  0  0  0  0  0  0  0  0  0
   22.2669   18.6831   24.2540 H   0  0  0  0  0  0  0  0  0  0  0  0
   23.0114   17.1157   23.9101 H   0  0  0  0  0  0  0  0  0  0  0  0
   23.1427   18.4300   22.7266 H   0  0  0  0  0  0  0  0  0  0  0  0
  1  2  1  0  0  0  0
  1  3  1  0  0  0  0
  1  4  1  0  0  0  0
  1  5  1  0  0  0  0
  5  6  1  0  0  0  0
  5  7  1  0  0  0  0
  5  8  1  0  0  0  0
  8  9  1  0  0  0  0
  8 10  1  0  0  0  0
  8 11  1  0  0  0  0
 11 12  1  0  0  0  0
 11 13  1  0  0  0  0
 11 14  1  0  0  0  0
 14 15  1  0  0  0  0
 14 16  1  0  0  0  0
 14 17  1  0  0  0  0
 17 18  1  0  0  0  0
 17 19  1  0  0  0  0
 17 20  1  0  0  0  0
M  END
> <VConfSearch Rank>
436

> <Conf_Id>
33

> <Delta U+W>
0.703

> <U+W>
-11.075

> <U>
47.080

> <W>
-58.154

> <W(PB)>
-60.053

> <W(SA)>
1.899

> <Valence>
1.943

> <Coulomb>
44.572

> <VdW>
0.565

> <VdW6>
-4.575

> <VdW12>
5.139

> <Bond>
0.158

> <Angle>
0.700

> <Pdih>
1.085

> <Idih>
0.000

> <Tether>
0.000

$$$$
VeraChem MOL file


 20 19  0  0  0  0  0  0  0  0999 V2000     
   18.5689   17.2473   23.7412 N   0  3  0  0  0  0  0  0  0  0  0  0
   17.9684   16.9516   24.5180 H   0  0  0  0  0  0  0  0  0  0  0  0
   18.2583   16.7318   22.9118 H   0  0  0  0  0  0  0  0  0  0  0  0
   19.5171   16.9274   23.9591 H   0  0  0  0  0  0  0  0  0  0  0  0
   18.5138   18.7478   23.5272 C   0  0  0  0  0  0  0  0  0  0  0  0
   18.8336   19.2352   24.4522 H   0  0  0  0  0  0  0  0  0  0  0  0
   17.4700   19.0173   23.3446 H   0  0  0  0  0  0  0  0  0  0  0  0
   19.3807   19.2436   22.3531 C   0  0  0  0  0  0  0  0  0  0  0  0
   19.0687   18.7395   21.4289 H   0  0  0  0  0  0  0  0  0  0  0  0
   19.1787   20.3126   22.2113 H   0  0  0  0  0  0  0  0  0  0  0  0
   20.8957   19.0242   22.5933 C   0  0  0  0  0  0  0  0  0  0  0  0
   21.0869   17.9577   22.7707 H   0  0  0  0  0  0  0  0  0  0  0  0
   21.2051   19.5500   23.5072 H   0  0  0  0  0  0  0  0  0  0  0  0
   21.7805   19.4830   21.4085 C   0  0  0  0  0  0  0  0  0  0  0  0
   22.8200   19.1893   21.6111 H   0  0  0  0  0  0  0  0  0  0  0  0
   21.4838   18.9498   20.4945 H   0  0  0  0  0  0  0  0  0  0  0  0
   21.7351   21.0080   21.1591 C   0  0  0  0  0  0  0  0  0  0  0  0
   21.9974   21.5651   22.0679 H   0  0  0  0  0  0  0  0  0  0  0  0
   22.4499   21.2901   20.3753 H   0  0  0  0  0  0  0  0  0  0  0  0
   20.7409   21.3343   20.8300 H   0  0  0  0  0  0  0  0  0  0  0  0
  1  2  1  0  0  0  0
  1  3  1  0  0  0  0
  1  4  1  0  0  0  0
  1  5  1  0  0  0  0
  5  6  1  0  0  0  0
  5  7  1  0  0  0  0
  5  8  1  0  0  0  0
  8  9  1  0  0  0  0
  8 10  1  0  0  0  0
  8 11  1  0  0  0  0
 11 12  1  0  0  0  0
 11 13  1  0  0  0  0
 11 14  1  0  0  0  0
 14 15  1  0  0  0  0
 14 16  1  0  0  0  0
 14 17  1  0  0  0  0
 17 18  1  0  0  0  0
 17 19  1  0  0  0  0
 17 20  1  0  0  0  0
M  END
> <VConfSearch Rank>
437

> <Conf_Id>
24

> <Delta U+W>
0.847

> <U+W>
-10.931

> <U>
47.080

> <W>
-58.011

> <W(PB)>
-59.914

> <W(SA)>
1.903

> <Valence>
1.943

> <Coulomb>
44.572

> <VdW>
0.565

> <VdW6>
-4.575

> <VdW12>
5.140

> <Bond>
0.158

> <Angle>
0.700

> <Pdih>
1.085

> <Idih>
0.000

> <Tether>
0.000

$$$$
VeraChem MOL file


 20 19  0  0  0  0  0  0  0  0999 V2000     
   19.7384   21.8718   23.0286 N   0  3  0  0  0  0  0  0  0  0  0  0
   18.9447   22.2923   23.5233 H   0  0  0  0  0  0  0  0  0  0  0  0
   20.5332   21.8861   23.6754 H   0  0  0  0  0  0  0  0  0  0  0  0
   19.9706   22.4992   22.2523 H   0  0  0  0  0  0  0  0  0  0  0  0
   19.4238   20.4694   22.5485 C   0  0  0  0  0  0  0  0  0  0  0  0
   18.5530   20.5250   21.8898 H   0  0  0  0  0  0  0  0  0  0  0  0
   19.1572   19.8675   23.4212 H   0  0  0  0  0  0  0  0  0  0  0  0
   20.5971   19.8081   21.8010 C   0  0  0  0  0  0  0  0  0  0  0  0
   20.8838   20.4414   20.9510 H   0  0  0  0  0  0  0  0  0  0  0  0
   21.4746   19.7600   22.4583 H   0  0  0  0  0  0  0  0  0  0  0  0
   20.2511   18.3927   21.2747 C   0  0  0  0  0  0  0  0  0  0  0  0
   21.1236   17.9867   20.7444 H   0  0  0  0  0  0  0  0  0  0  0  0
   19.4534   18.4767   20.5236 H   0  0  0  0  0  0  0  0  0  0  0  0
   19.8057   17.3840   22.3644 C   0  0  0  0  0  0  0  0  0  0  0  0
   18.8724   17.7214   22.8354 H   0  0  0  0  0  0  0  0  0  0  0  0
   19.5690   16.4265   21.8795 H   0  0  0  0  0  0  0  0  0  0  0  0
   20.8776   17.1400   23.4509 C   0  0  0  0  0  0  0  0  0  0  0  0
   20.5515   16.3525   24.1426 H   0  0  0  0  0  0  0  0  0  0  0  0
   21.8279   16.8212   23.0036 H   0  0  0  0  0  0  0  0  0  0  0  0
   21.0626   18.0440   24.0444 H   0  0  0  0  0  0  0  0  0  0  0  0
  1  2  1  0  0  0  0
  1  3  1  0  0  0  0
  1  4  1  0  0  0  0
  1  5  1  0  0  0  0
  5  6  1  0  0  0  0
  5  7  1  0  0  0  0
  5  8  1  0  0  0  0
  8  9  1  0  0  0  0
  8 10  1  0  0  0  0
  8 11  1  0  0  0  0
 11 12  1  0  0  0  0
 11 13  1  0  0  0  0
 11 14  1  0  0  0  0
 14 15  1  0  0  0  0
 14 16  1  0  0  0  0
 14 17  1  0  0  0  0
 17 18  1  0  0  0  0
 17 19  1  0  0  0  0
 17 20  1  0  0  0  0
M  END
> <VConfSearch Rank>
438

> <Conf_Id>
64

> <Delta U+W>
0.707

> <U+W>
-11.070

> <U>
47.077

> <W>
-58.148

> <W(PB)>
-60.054

> <W(SA)>
1.906

> <Valence>
2.039

> <Coulomb>
44.655

> <VdW>
0.383

> <VdW6>
-4.912

> <VdW12>
5.295

> <Bond>
0.159

> <Angle>
0.856

> <Pdih>
1.024

> <Idih>
0.000

> <Tether>
0.000

$$$$
VeraChem MOL file


 20 19  0  0  0  0  0  0  0  0999 V2000     
   17.8379   20.3443   21.9308 N   0  3  0  0  0  0  0  0  0  0  0  0
   17.8031   20.7820   21.0048 H   0  0  0  0  0  0  0  0  0  0  0  0
   17.3399   19.4513   21.8608 H   0  0  0  0  0  0  0  0  0  0  0  0
   17.2924   20.9405   22.5620 H   0  0  0  0  0  0  0  0  0  0  0  0
   19.2613   20.1624   22.4179 C   0  0  0  0  0  0  0  0  0  0  0  0
   19.2204   19.7216   23.4174 H   0  0  0  0  0  0  0  0  0  0  0  0
   19.7206   21.1515   22.4967 H   0  0  0  0  0  0  0  0  0  0  0  0
   20.1087   19.2702   21.4914 C   0  0  0  0  0  0  0  0  0  0  0  0
   19.6436   18.2800   21.4043 H   0  0  0  0  0  0  0  0  0  0  0  0
   20.1088   19.6999   20.4809 H   0  0  0  0  0  0  0  0  0  0  0  0
   21.5741   19.1268   21.9732 C   0  0  0  0  0  0  0  0  0  0  0  0
   22.0604   20.1115   21.9337 H   0  0  0  0  0  0  0  0  0  0  0  0
   22.1217   18.4911   21.2638 H   0  0  0  0  0  0  0  0  0  0  0  0
   21.7359   18.5478   23.4020 C   0  0  0  0  0  0  0  0  0  0  0  0
   22.8071   18.5084   23.6448 H   0  0  0  0  0  0  0  0  0  0  0  0
   21.2851   19.2256   24.1396 H   0  0  0  0  0  0  0  0  0  0  0  0
   21.1368   17.1321   23.5629 C   0  0  0  0  0  0  0  0  0  0  0  0
   21.5566   16.4391   22.8222 H   0  0  0  0  0  0  0  0  0  0  0  0
   21.3588   16.7317   24.5605 H   0  0  0  0  0  0  0  0  0  0  0  0
   20.0459   17.1407   23.4466 H   0  0  0  0  0  0  0  0  0  0  0  0
  1  2  1  0  0  0  0
  1  3  1  0  0  0  0
  1  4  1  0  0  0  0
  1  5  1  0  0  0  0
  5  6  1  0  0  0  0
  5  7  1  0  0  0  0
  5  8  1  0  0  0  0
  8  9  1  0  0  0  0
  8 10  1  0  0  0  0
  8 11  1  0  0  0  0
 11 12  1  0  0  0  0
 11 13  1  0  0  0  0
 11 14  1  0  0  0  0
 14 15  1  0  0  0  0
 14 16  1  0  0  0  0
 14 17  1  0  0  0  0
 17 18  1  0  0  0  0
 17 19  1  0  0  0  0
 17 20  1  0  0  0  0
M  END
> <VConfSearch Rank>
439

> <Conf_Id>
22

> <Delta U+W>
0.731

> <U+W>
-11.047

> <U>
47.078

> <W>
-58.125

> <W(PB)>
-60.031

> <W(SA)>
1.906

> <Valence>
2.039

> <Coulomb>
44.655

> <VdW>
0.383

> <VdW6>
-4.913

> <VdW12>
5.296

> <Bond>
0.159

> <Angle>
0.856

> <Pdih>
1.024

> <Idih>
0.000

> <Tether>
0.000

$$$$
VeraChem MOL file


 20 19  0  0  0  0  0  0  0  0999 V2000     
   19.1755   16.7314   23.1687 N   0  3  0  0  0  0  0  0  0  0  0  0
   20.0275   16.2219   23.4232 H   0  0  0  0  0  0  0  0  0  0  0  0
   18.5781   16.7538   24.0011 H   0  0  0  0  0  0  0  0  0  0  0  0
   18.6875   16.1636   22.4680 H   0  0  0  0  0  0  0  0  0  0  0  0
   19.4806   18.1233   22.6528 C   0  0  0  0  0  0  0  0  0  0  0  0
   18.5346   18.5965   22.3760 H   0  0  0  0  0  0  0  0  0  0  0  0
   20.0925   18.0171   21.7542 H   0  0  0  0  0  0  0  0  0  0  0  0
   20.2187   19.0000   23.6801 C   0  0  0  0  0  0  0  0  0  0  0  0
   19.6492   18.9990   24.6190 H   0  0  0  0  0  0  0  0  0  0  0  0
   21.1946   18.5517   23.9092 H   0  0  0  0  0  0  0  0  0  0  0  0
   20.4146   20.4691   23.2269 C   0  0  0  0  0  0  0  0  0  0  0  0
   20.8645   21.0161   24.0671 H   0  0  0  0  0  0  0  0  0  0  0  0
   19.4397   20.9446   23.0515 H   0  0  0  0  0  0  0  0  0  0  0  0
   21.3310   20.6542   21.9895 C   0  0  0  0  0  0  0  0  0  0  0  0
   21.8048   21.6437   22.0565 H   0  0  0  0  0  0  0  0  0  0  0  0
   22.1525   19.9246   22.0108 H   0  0  0  0  0  0  0  0  0  0  0  0
   20.5822   20.5796   20.6380 C   0  0  0  0  0  0  0  0  0  0  0  0
   20.1558   19.5883   20.4529 H   0  0  0  0  0  0  0  0  0  0  0  0
   19.7671   21.3139   20.5984 H   0  0  0  0  0  0  0  0  0  0  0  0
   21.2676   20.8004   19.8095 H   0  0  0  0  0  0  0  0  0  0  0  0
  1  2  1  0  0  0  0
  1  3  1  0  0  0  0
  1  4  1  0  0  0  0
  1  5  1  0  0  0  0
  5  6  1  0  0  0  0
  5  7  1  0  0  0  0
  5  8  1  0  0  0  0
  8  9  1  0  0  0  0
  8 10  1  0  0  0  0
  8 11  1  0  0  0  0
 11 12  1  0  0  0  0
 11 13  1  0  0  0  0
 11 14  1  0  0  0  0
 14 15  1  0  0  0  0
 14 16  1  0  0  0  0
 14 17  1  0  0  0  0
 17 18  1  0  0  0  0
 17 19  1  0  0  0  0
 17 20  1  0  0  0  0
M  END
> <VConfSearch Rank>
440

> <Conf_Id>
61

> <Delta U+W>
2.669

> <U+W>
-9.108

> <U>
48.916

> <W>
-58.025

> <W(PB)>
-59.935

> <W(SA)>
1.911

> <Valence>
3.785

> <Coulomb>
44.716

> <VdW>
0.415

> <VdW6>
-4.836

> <VdW12>
5.251

> <Bond>
0.175

> <Angle>
1.195

> <Pdih>
2.415

> <Idih>
0.000

> <Tether>
0.000

$$$$
VeraChem MOL file


 20 19  0  0  0  0  0  0  0  0999 V2000     
   20.6444   19.1624   20.1902 N   0  3  0  0  0  0  0  0  0  0  0  0
   21.1834   19.6660   19.4779 H   0  0  0  0  0  0  0  0  0  0  0  0
   20.0572   18.4849   19.6937 H   0  0  0  0  0  0  0  0  0  0  0  0
   20.0173   19.8417   20.6286 H   0  0  0  0  0  0  0  0  0  0  0  0
   21.5474   18.4870   21.2046 C   0  0  0  0  0  0  0  0  0  0  0  0
   22.1891   19.2461   21.6601 H   0  0  0  0  0  0  0  0  0  0  0  0
   22.1857   17.7936   20.6502 H   0  0  0  0  0  0  0  0  0  0  0  0
   20.7972   17.7066   22.3044 C   0  0  0  0  0  0  0  0  0  0  0  0
   19.9647   17.1419   21.8641 H   0  0  0  0  0  0  0  0  0  0  0  0
   21.4879   16.9559   22.7109 H   0  0  0  0  0  0  0  0  0  0  0  0
   20.2951   18.5776   23.4847 C   0  0  0  0  0  0  0  0  0  0  0  0
   21.1483   19.0900   23.9504 H   0  0  0  0  0  0  0  0  0  0  0  0
   19.8850   17.9078   24.2532 H   0  0  0  0  0  0  0  0  0  0  0  0
   19.2159   19.6170   23.1011 C   0  0  0  0  0  0  0  0  0  0  0  0
   19.6491   20.3857   22.4489 H   0  0  0  0  0  0  0  0  0  0  0  0
   18.4082   19.1274   22.5391 H   0  0  0  0  0  0  0  0  0  0  0  0
   18.6233   20.3077   24.3480 C   0  0  0  0  0  0  0  0  0  0  0  0
   17.8668   21.0485   24.0584 H   0  0  0  0  0  0  0  0  0  0  0  0
   18.1421   19.5787   25.0131 H   0  0  0  0  0  0  0  0  0  0  0  0
   19.4031   20.8285   24.9190 H   0  0  0  0  0  0  0  0  0  0  0  0
  1  2  1  0  0  0  0
  1  3  1  0  0  0  0
  1  4  1  0  0  0  0
  1  5  1  0  0  0  0
  5  6  1  0  0  0  0
  5  7  1  0  0  0  0
  5  8  1  0  0  0  0
  8  9  1  0  0  0  0
  8 10  1  0  0  0  0
  8 11  1  0  0  0  0
 11 12  1  0  0  0  0
 11 13  1  0  0  0  0
 11 14  1  0  0  0  0
 14 15  1  0  0  0  0
 14 16  1  0  0  0  0
 14 17  1  0  0  0  0
 17 18  1  0  0  0  0
 17 19  1  0  0  0  0
 17 20  1  0  0  0  0
M  END
> <VConfSearch Rank>
441

> <Conf_Id>
69

> <Delta U+W>
2.811

> <U+W>
-8.967

> <U>
49.216

> <W>
-58.183

> <W(PB)>
-60.064

> <W(SA)>
1.881

> <Valence>
2.929

> <Coulomb>
46.006

> <VdW>
0.281

> <VdW6>
-4.909

> <VdW12>
5.190

> <Bond>
0.156

> <Angle>
0.974

> <Pdih>
1.799

> <Idih>
0.000

> <Tether>
0.000

$$$$
VeraChem MOL file


 20 19  0  0  0  0  0  0  0  0999 V2000     
   22.3659   19.3680   22.4329 N   0  3  0  0  0  0  0  0  0  0  0  0
   21.7663   20.1294   22.1046 H   0  0  0  0  0  0  0  0  0  0  0  0
   22.6625   19.6053   23.3847 H   0  0  0  0  0  0  0  0  0  0  0  0
   23.2088   19.3753   21.8489 H   0  0  0  0  0  0  0  0  0  0  0  0
   21.6588   18.0270   22.3818 C   0  0  0  0  0  0  0  0  0  0  0  0
   22.3724   17.2777   22.7352 H   0  0  0  0  0  0  0  0  0  0  0  0
   21.4179   17.7992   21.3400 H   0  0  0  0  0  0  0  0  0  0  0  0
   20.3815   17.9479   23.2443 C   0  0  0  0  0  0  0  0  0  0  0  0
   20.1922   16.8887   23.4635 H   0  0  0  0  0  0  0  0  0  0  0  0
   20.5528   18.4300   24.2159 H   0  0  0  0  0  0  0  0  0  0  0  0
   19.1113   18.5272   22.5699 C   0  0  0  0  0  0  0  0  0  0  0  0
   18.2516   18.3133   23.2201 H   0  0  0  0  0  0  0  0  0  0  0  0
   18.9215   17.9943   21.6279 H   0  0  0  0  0  0  0  0  0  0  0  0
   19.1660   20.0491   22.2995 C   0  0  0  0  0  0  0  0  0  0  0  0
   19.4614   20.5811   23.2147 H   0  0  0  0  0  0  0  0  0  0  0  0
   19.9220   20.2683   21.5351 H   0  0  0  0  0  0  0  0  0  0  0  0
   17.8042   20.5892   21.8127 C   0  0  0  0  0  0  0  0  0  0  0  0
   17.0221   20.4268   22.5658 H   0  0  0  0  0  0  0  0  0  0  0  0
   17.8625   21.6676   21.6163 H   0  0  0  0  0  0  0  0  0  0  0  0
   17.4924   20.0941   20.8838 H   0  0  0  0  0  0  0  0  0  0  0  0
  1  2  1  0  0  0  0
  1  3  1  0  0  0  0
  1  4  1  0  0  0  0
  1  5  1  0  0  0  0
  5  6  1  0  0  0  0
  5  7  1  0  0  0  0
  5  8  1  0  0  0  0
  8  9  1  0  0  0  0
  8 10  1  0  0  0  0
  8 11  1  0  0  0  0
 11 12  1  0  0  0  0
 11 13  1  0  0  0  0
 11 14  1  0  0  0  0
 14 15  1  0  0  0  0
 14 16  1  0  0  0  0
 14 17  1  0  0  0  0
 17 18  1  0  0  0  0
 17 19  1  0  0  0  0
 17 20  1  0  0  0  0
M  END
> <VConfSearch Rank>
442

> <Conf_Id>
26

> <Delta U+W>
2.809

> <U+W>
-8.969

> <U>
49.216

> <W>
-58.185

> <W(PB)>
-60.088

> <W(SA)>
1.903

> <Valence>
2.929

> <Coulomb>
46.006

> <VdW>
0.281

> <VdW6>
-4.909

> <VdW12>
5.190

> <Bond>
0.156

> <Angle>
0.974

> <Pdih>
1.799

> <Idih>
0.000

> <Tether>
0.000

$$$$
VeraChem MOL file


 20 19  0  0  0  0  0  0  0  0999 V2000     
   19.0715   20.5272   20.7592 N   0  3  0  0  0  0  0  0  0  0  0  0
   18.4295   20.4904   21.5563 H   0  0  0  0  0  0  0  0  0  0  0  0
   19.3869   21.4980   20.6690 H   0  0  0  0  0  0  0  0  0  0  0  0
   18.5222   20.3128   19.9204 H   0  0  0  0  0  0  0  0  0  0  0  0
   20.2350   19.5702   20.9311 C   0  0  0  0  0  0  0  0  0  0  0  0
   20.8582   19.6393   20.0354 H   0  0  0  0  0  0  0  0  0  0  0  0
   19.8343   18.5547   20.9877 H   0  0  0  0  0  0  0  0  0  0  0  0
   21.0962   19.8593   22.1773 C   0  0  0  0  0  0  0  0  0  0  0  0
   21.9530   19.1735   22.1821 H   0  0  0  0  0  0  0  0  0  0  0  0
   21.5209   20.8684   22.0942 H   0  0  0  0  0  0  0  0  0  0  0  0
   20.3253   19.7389   23.5183 C   0  0  0  0  0  0  0  0  0  0  0  0
   19.5721   20.5360   23.5774 H   0  0  0  0  0  0  0  0  0  0  0  0
   21.0233   19.9282   24.3455 H   0  0  0  0  0  0  0  0  0  0  0  0
   19.6296   18.3728   23.7480 C   0  0  0  0  0  0  0  0  0  0  0  0
   19.0999   18.4065   24.7104 H   0  0  0  0  0  0  0  0  0  0  0  0
   18.8575   18.2060   22.9847 H   0  0  0  0  0  0  0  0  0  0  0  0
   20.6117   17.1794   23.7621 C   0  0  0  0  0  0  0  0  0  0  0  0
   21.4044   17.3292   24.5065 H   0  0  0  0  0  0  0  0  0  0  0  0
   20.0845   16.2506   24.0157 H   0  0  0  0  0  0  0  0  0  0  0  0
   21.0830   17.0341   22.7822 H   0  0  0  0  0  0  0  0  0  0  0  0
  1  2  1  0  0  0  0
  1  3  1  0  0  0  0
  1  4  1  0  0  0  0
  1  5  1  0  0  0  0
  5  6  1  0  0  0  0
  5  7  1  0  0  0  0
  5  8  1  0  0  0  0
  8  9  1  0  0  0  0
  8 10  1  0  0  0  0
  8 11  1  0  0  0  0
 11 12  1  0  0  0  0
 11 13  1  0  0  0  0
 11 14  1  0  0  0  0
 14 15  1  0  0  0  0
 14 16  1  0  0  0  0
 14 17  1  0  0  0  0
 17 18  1  0  0  0  0
 17 19  1  0  0  0  0
 17 20  1  0  0  0  0
M  END
> <VConfSearch Rank>
443

> <Conf_Id>
2

> <Delta U+W>
0.994

> <U+W>
-10.784

> <U>
47.562

> <W>
-58.346

> <W(PB)>
-60.221

> <W(SA)>
1.875

> <Valence>
2.149

> <Coulomb>
45.034

> <VdW>
0.378

> <VdW6>
-5.599

> <VdW12>
5.977

> <Bond>
0.185

> <Angle>
0.935

> <Pdih>
1.028

> <Idih>
0.000

> <Tether>
0.000

$$$$
VeraChem MOL file


 20 19  0  0  0  0  0  0  0  0999 V2000     
   19.3396   20.8349   23.9091 N   0  3  0  0  0  0  0  0  0  0  0  0
   19.6670   21.7885   23.7262 H   0  0  0  0  0  0  0  0  0  0  0  0
   18.6030   20.6318   23.2270 H   0  0  0  0  0  0  0  0  0  0  0  0
   18.8983   20.8433   24.8346 H   0  0  0  0  0  0  0  0  0  0  0  0
   20.4692   19.8264   23.8320 C   0  0  0  0  0  0  0  0  0  0  0  0
   20.0611   18.8402   24.0683 H   0  0  0  0  0  0  0  0  0  0  0  0
   21.1995   20.0848   24.6036 H   0  0  0  0  0  0  0  0  0  0  0  0
   21.1692   19.7838   22.4585 C   0  0  0  0  0  0  0  0  0  0  0  0
   21.6045   20.7693   22.2465 H   0  0  0  0  0  0  0  0  0  0  0  0
   22.0164   19.0883   22.5147 H   0  0  0  0  0  0  0  0  0  0  0  0
   20.2367   19.3751   21.2879 C   0  0  0  0  0  0  0  0  0  0  0  0
   20.8267   19.3398   20.3618 H   0  0  0  0  0  0  0  0  0  0  0  0
   19.4849   20.1602   21.1310 H   0  0  0  0  0  0  0  0  0  0  0  0
   19.5128   18.0174   21.4768 C   0  0  0  0  0  0  0  0  0  0  0  0
   18.8412   18.0619   22.3449 H   0  0  0  0  0  0  0  0  0  0  0  0
   18.8674   17.8398   20.6051 H   0  0  0  0  0  0  0  0  0  0  0  0
   20.4811   16.8226   21.6307 C   0  0  0  0  0  0  0  0  0  0  0  0
   21.0703   16.8978   22.5530 H   0  0  0  0  0  0  0  0  0  0  0  0
   19.9231   15.8782   21.6717 H   0  0  0  0  0  0  0  0  0  0  0  0
   21.1754   16.7653   20.7824 H   0  0  0  0  0  0  0  0  0  0  0  0
  1  2  1  0  0  0  0
  1  3  1  0  0  0  0
  1  4  1  0  0  0  0
  1  5  1  0  0  0  0
  5  6  1  0  0  0  0
  5  7  1  0  0  0  0
  5  8  1  0  0  0  0
  8  9  1  0  0  0  0
  8 10  1  0  0  0  0
  8 11  1  0  0  0  0
 11 12  1  0  0  0  0
 11 13  1  0  0  0  0
 11 14  1  0  0  0  0
 14 15  1  0  0  0  0
 14 16  1  0  0  0  0
 14 17  1  0  0  0  0
 17 18  1  0  0  0  0
 17 19  1  0  0  0  0
 17 20  1  0  0  0  0
M  END
> <VConfSearch Rank>
444

> <Conf_Id>
1

> <Delta U+W>
1.032

> <U+W>
-10.746

> <U>
47.562

> <W>
-58.308

> <W(PB)>
-60.184

> <W(SA)>
1.877

> <Valence>
2.149

> <Coulomb>
45.035

> <VdW>
0.378

> <VdW6>
-5.599

> <VdW12>
5.978

> <Bond>
0.185

> <Angle>
0.935

> <Pdih>
1.028

> <Idih>
0.000

> <Tether>
0.000

$$$$
VeraChem MOL file


 20 19  0  0  0  0  0  0  0  0999 V2000     
   20.0830   17.2026   23.8143 N   0  3  0  0  0  0  0  0  0  0  0  0
   20.9429   16.7029   24.0612 H   0  0  0  0  0  0  0  0  0  0  0  0
   20.0218   18.0209   24.4269 H   0  0  0  0  0  0  0  0  0  0  0  0
   19.3001   16.5870   24.0580 H   0  0  0  0  0  0  0  0  0  0  0  0
   20.0578   17.5924   22.3490 C   0  0  0  0  0  0  0  0  0  0  0  0
   19.1072   18.0897   22.1497 H   0  0  0  0  0  0  0  0  0  0  0  0
   20.0834   16.6695   21.7632 H   0  0  0  0  0  0  0  0  0  0  0  0
   21.2358   18.4945   21.9232 C   0  0  0  0  0  0  0  0  0  0  0  0
   22.1700   17.9634   22.1488 H   0  0  0  0  0  0  0  0  0  0  0  0
   21.2195   18.6235   20.8330 H   0  0  0  0  0  0  0  0  0  0  0  0
   21.2705   19.8857   22.6115 C   0  0  0  0  0  0  0  0  0  0  0  0
   22.3061   20.2517   22.5781 H   0  0  0  0  0  0  0  0  0  0  0  0
   21.0267   19.7965   23.6779 H   0  0  0  0  0  0  0  0  0  0  0  0
   20.3760   20.9670   21.9523 C   0  0  0  0  0  0  0  0  0  0  0  0
   20.5552   21.9221   22.4658 H   0  0  0  0  0  0  0  0  0  0  0  0
   20.6879   21.1211   20.9098 H   0  0  0  0  0  0  0  0  0  0  0  0
   18.8621   20.6635   21.9958 C   0  0  0  0  0  0  0  0  0  0  0  0
   18.5384   20.3922   23.0089 H   0  0  0  0  0  0  0  0  0  0  0  0
   18.2869   21.5454   21.6854 H   0  0  0  0  0  0  0  0  0  0  0  0
   18.5980   19.8489   21.3112 H   0  0  0  0  0  0  0  0  0  0  0  0
  1  2  1  0  0  0  0
  1  3  1  0  0  0  0
  1  4  1  0  0  0  0
  1  5  1  0  0  0  0
  5  6  1  0  0  0  0
  5  7  1  0  0  0  0
  5  8  1  0  0  0  0
  8  9  1  0  0  0  0
  8 10  1  0  0  0  0
  8 11  1  0  0  0  0
 11 12  1  0  0  0  0
 11 13  1  0  0  0  0
 11 14  1  0  0  0  0
 14 15  1  0  0  0  0
 14 16  1  0  0  0  0
 14 17  1  0  0  0  0
 17 18  1  0  0  0  0
 17 19  1  0  0  0  0
 17 20  1  0  0  0  0
M  END
> <VConfSearch Rank>
445

> <Conf_Id>
80

> <Delta U+W>
2.920

> <U+W>
-8.857

> <U>
49.434

> <W>
-58.292

> <W(PB)>
-60.170

> <W(SA)>
1.879

> <Valence>
3.798

> <Coulomb>
45.253

> <VdW>
0.384

> <VdW6>
-5.595

> <VdW12>
5.979

> <Bond>
0.198

> <Angle>
1.368

> <Pdih>
2.231

> <Idih>
0.000

> <Tether>
0.000

$$$$
VeraChem MOL file


 20 19  0  0  0  0  0  0  0  0999 V2000     
   21.3877   20.8543   23.6263 N   0  3  0  0  0  0  0  0  0  0  0  0
   22.3344   20.6424   23.9565 H   0  0  0  0  0  0  0  0  0  0  0  0
   21.2646   21.8692   23.7055 H   0  0  0  0  0  0  0  0  0  0  0  0
   20.7334   20.4216   24.2845 H   0  0  0  0  0  0  0  0  0  0  0  0
   21.1631   20.3691   22.2072 C   0  0  0  0  0  0  0  0  0  0  0  0
   21.8654   20.9041   21.5622 H   0  0  0  0  0  0  0  0  0  0  0  0
   20.1522   20.6534   21.9107 H   0  0  0  0  0  0  0  0  0  0  0  0
   21.3684   18.8497   22.0278 C   0  0  0  0  0  0  0  0  0  0  0  0
   21.3173   18.5995   20.9599 H   0  0  0  0  0  0  0  0  0  0  0  0
   22.3907   18.6046   22.3451 H   0  0  0  0  0  0  0  0  0  0  0  0
   20.3707   17.9614   22.8189 C   0  0  0  0  0  0  0  0  0  0  0  0
   20.2124   18.3614   23.8286 H   0  0  0  0  0  0  0  0  0  0  0  0
   20.8384   16.9778   22.9642 H   0  0  0  0  0  0  0  0  0  0  0  0
   19.0056   17.7264   22.1222 C   0  0  0  0  0  0  0  0  0  0  0  0
   19.1645   17.2372   21.1509 H   0  0  0  0  0  0  0  0  0  0  0  0
   18.4278   17.0145   22.7283 H   0  0  0  0  0  0  0  0  0  0  0  0
   18.1573   19.0017   21.9224 C   0  0  0  0  0  0  0  0  0  0  0  0
   18.5839   19.6476   21.1459 H   0  0  0  0  0  0  0  0  0  0  0  0
   17.1415   18.7380   21.6008 H   0  0  0  0  0  0  0  0  0  0  0  0
   18.0752   19.5764   22.8539 H   0  0  0  0  0  0  0  0  0  0  0  0
  1  2  1  0  0  0  0
  1  3  1  0  0  0  0
  1  4  1  0  0  0  0
  1  5  1  0  0  0  0
  5  6  1  0  0  0  0
  5  7  1  0  0  0  0
  5  8  1  0  0  0  0
  8  9  1  0  0  0  0
  8 10  1  0  0  0  0
  8 11  1  0  0  0  0
 11 12  1  0  0  0  0
 11 13  1  0  0  0  0
 11 14  1  0  0  0  0
 14 15  1  0  0  0  0
 14 16  1  0  0  0  0
 14 17  1  0  0  0  0
 17 18  1  0  0  0  0
 17 19  1  0  0  0  0
 17 20  1  0  0  0  0
M  END
> <VConfSearch Rank>
446

> <Conf_Id>
65

> <Delta U+W>
2.949

> <U+W>
-8.829

> <U>
49.435

> <W>
-58.263

> <W(PB)>
-60.125

> <W(SA)>
1.862

> <Valence>
3.797

> <Coulomb>
45.253

> <VdW>
0.384

> <VdW6>
-5.596

> <VdW12>
5.980

> <Bond>
0.198

> <Angle>
1.369

> <Pdih>
2.230

> <Idih>
0.000

> <Tether>
0.000

$$$$
VeraChem MOL file


 20 19  0  0  0  0  0  0  0  0999 V2000     
   19.5677   20.5625   21.1040 N   0  3  0  0  0  0  0  0  0  0  0  0
   19.6302   20.6829   20.0875 H   0  0  0  0  0  0  0  0  0  0  0  0
   19.0229   19.7125   21.2784 H   0  0  0  0  0  0  0  0  0  0  0  0
   19.0238   21.3528   21.4647 H   0  0  0  0  0  0  0  0  0  0  0  0
   20.9385   20.4827   21.7474 C   0  0  0  0  0  0  0  0  0  0  0  0
   21.4533   21.4200   21.5198 H   0  0  0  0  0  0  0  0  0  0  0  0
   21.4976   19.6668   21.2816 H   0  0  0  0  0  0  0  0  0  0  0  0
   20.9024   20.2868   23.2767 C   0  0  0  0  0  0  0  0  0  0  0  0
   21.8555   20.6512   23.6823 H   0  0  0  0  0  0  0  0  0  0  0  0
   20.1268   20.9285   23.7155 H   0  0  0  0  0  0  0  0  0  0  0  0
   20.7158   18.8206   23.7514 C   0  0  0  0  0  0  0  0  0  0  0  0
   20.7641   18.8224   24.8492 H   0  0  0  0  0  0  0  0  0  0  0  0
   21.5672   18.2091   23.4218 H   0  0  0  0  0  0  0  0  0  0  0  0
   19.3839   18.1484   23.3311 C   0  0  0  0  0  0  0  0  0  0  0  0
   19.0551   17.4851   24.1436 H   0  0  0  0  0  0  0  0  0  0  0  0
   18.5905   18.9004   23.2250 H   0  0  0  0  0  0  0  0  0  0  0  0
   19.5127   17.2947   22.0472 C   0  0  0  0  0  0  0  0  0  0  0  0
   19.9056   17.8673   21.2003 H   0  0  0  0  0  0  0  0  0  0  0  0
   20.1908   16.4474   22.2137 H   0  0  0  0  0  0  0  0  0  0  0  0
   18.5371   16.8842   21.7560 H   0  0  0  0  0  0  0  0  0  0  0  0
  1  2  1  0  0  0  0
  1  3  1  0  0  0  0
  1  4  1  0  0  0  0
  1  5  1  0  0  0  0
  5  6  1  0  0  0  0
  5  7  1  0  0  0  0
  5  8  1  0  0  0  0
  8  9  1  0  0  0  0
  8 10  1  0  0  0  0
  8 11  1  0  0  0  0
 11 12  1  0  0  0  0
 11 13  1  0  0  0  0
 11 14  1  0  0  0  0
 14 15  1  0  0  0  0
 14 16  1  0  0  0  0
 14 17  1  0  0  0  0
 17 18  1  0  0  0  0
 17 19  1  0  0  0  0
 17 20  1  0  0  0  0
M  END
> <VConfSearch Rank>
447

> <Conf_Id>
77

> <Delta U+W>
5.366

> <U+W>
-6.412

> <U>
51.542

> <W>
-57.954

> <W(PB)>
-59.811

> <W(SA)>
1.857

> <Valence>
5.347

> <Coulomb>
45.870

> <VdW>
0.325

> <VdW6>
-6.161

> <VdW12>
6.486

> <Bond>
0.201

> <Angle>
1.484

> <Pdih>
3.662

> <Idih>
0.000

> <Tether>
0.000

$$$$
VeraChem MOL file


 20 19  0  0  0  0  0  0  0  0999 V2000     
   21.3512   18.1805   21.0932 N   0  3  0  0  0  0  0  0  0  0  0  0
   20.9544   18.1457   20.1489 H   0  0  0  0  0  0  0  0  0  0  0  0
   21.4509   19.1684   21.3458 H   0  0  0  0  0  0  0  0  0  0  0  0
   22.2946   17.7826   21.0351 H   0  0  0  0  0  0  0  0  0  0  0  0
   20.4871   17.4382   22.0941 C   0  0  0  0  0  0  0  0  0  0  0  0
   20.9871   17.4505   23.0663 H   0  0  0  0  0  0  0  0  0  0  0  0
   20.4274   16.4000   21.7566 H   0  0  0  0  0  0  0  0  0  0  0  0
   19.0597   18.0056   22.2319 C   0  0  0  0  0  0  0  0  0  0  0  0
   18.6604   18.2528   21.2393 H   0  0  0  0  0  0  0  0  0  0  0  0
   18.4180   17.2035   22.6201 H   0  0  0  0  0  0  0  0  0  0  0  0
   18.9215   19.2245   23.1833 C   0  0  0  0  0  0  0  0  0  0  0  0
   19.1953   18.9334   24.2069 H   0  0  0  0  0  0  0  0  0  0  0  0
   17.8552   19.4862   23.2285 H   0  0  0  0  0  0  0  0  0  0  0  0
   19.7088   20.4914   22.7619 C   0  0  0  0  0  0  0  0  0  0  0  0
   19.8162   20.5316   21.6696 H   0  0  0  0  0  0  0  0  0  0  0  0
   19.1173   21.3773   23.0332 H   0  0  0  0  0  0  0  0  0  0  0  0
   21.0853   20.6110   23.4583 C   0  0  0  0  0  0  0  0  0  0  0  0
   21.6301   21.4900   23.0900 H   0  0  0  0  0  0  0  0  0  0  0  0
   20.9601   20.7308   24.5424 H   0  0  0  0  0  0  0  0  0  0  0  0
   21.7153   19.7299   23.2965 H   0  0  0  0  0  0  0  0  0  0  0  0
  1  2  1  0  0  0  0
  1  3  1  0  0  0  0
  1  4  1  0  0  0  0
  1  5  1  0  0  0  0
  5  6  1  0  0  0  0
  5  7  1  0  0  0  0
  5  8  1  0  0  0  0
  8  9  1  0  0  0  0
  8 10  1  0  0  0  0
  8 11  1  0  0  0  0
 11 12  1  0  0  0  0
 11 13  1  0  0  0  0
 11 14  1  0  0  0  0
 14 15  1  0  0  0  0
 14 16  1  0  0  0  0
 14 17  1  0  0  0  0
 17 18  1  0  0  0  0
 17 19  1  0  0  0  0
 17 20  1  0  0  0  0
M  END
> <VConfSearch Rank>
448

> <Conf_Id>
67

> <Delta U+W>
5.353

> <U+W>
-6.425

> <U>
51.541

> <W>
-57.966

> <W(PB)>
-59.821

> <W(SA)>
1.855

> <Valence>
5.347

> <Coulomb>
45.870

> <VdW>
0.325

> <VdW6>
-6.161

> <VdW12>
6.486

> <Bond>
0.201

> <Angle>
1.485

> <Pdih>
3.662

> <Idih>
0.000

> <Tether>
0.000

$$$$
VeraChem MOL file


 20 19  0  0  0  0  0  0  0  0999 V2000     
   19.6152   22.0201   21.1661 N   0  3  0  0  0  0  0  0  0  0  0  0
   20.2291   22.5670   21.7780 H   0  0  0  0  0  0  0  0  0  0  0  0
   19.6642   22.4490   20.2359 H   0  0  0  0  0  0  0  0  0  0  0  0
   18.6569   22.1531   21.5043 H   0  0  0  0  0  0  0  0  0  0  0  0
   20.0064   20.5564   21.1327 C   0  0  0  0  0  0  0  0  0  0  0  0
   21.0228   20.4877   20.7357 H   0  0  0  0  0  0  0  0  0  0  0  0
   19.3326   20.0427   20.4416 H   0  0  0  0  0  0  0  0  0  0  0  0
   19.9435   19.8817   22.5147 C   0  0  0  0  0  0  0  0  0  0  0  0
   20.6095   20.4106   23.2096 H   0  0  0  0  0  0  0  0  0  0  0  0
   18.9250   19.9671   22.9166 H   0  0  0  0  0  0  0  0  0  0  0  0
   20.3490   18.3930   22.4367 C   0  0  0  0  0  0  0  0  0  0  0  0
   21.3664   18.3110   22.0294 H   0  0  0  0  0  0  0  0  0  0  0  0
   19.6840   17.8681   21.7368 H   0  0  0  0  0  0  0  0  0  0  0  0
   20.2897   17.7051   23.8191 C   0  0  0  0  0  0  0  0  0  0  0  0
   20.9552   18.2259   24.5219 H   0  0  0  0  0  0  0  0  0  0  0  0
   19.2730   17.7829   24.2292 H   0  0  0  0  0  0  0  0  0  0  0  0
   20.6957   16.2181   23.7363 C   0  0  0  0  0  0  0  0  0  0  0  0
   21.7217   16.1090   23.3614 H   0  0  0  0  0  0  0  0  0  0  0  0
   20.6474   15.7473   24.7268 H   0  0  0  0  0  0  0  0  0  0  0  0
   20.0263   15.6625   23.0666 H   0  0  0  0  0  0  0  0  0  0  0  0
  1  2  1  0  0  0  0
  1  3  1  0  0  0  0
  1  4  1  0  0  0  0
  1  5  1  0  0  0  0
  5  6  1  0  0  0  0
  5  7  1  0  0  0  0
  5  8  1  0  0  0  0
  8  9  1  0  0  0  0
  8 10  1  0  0  0  0
  8 11  1  0  0  0  0
 11 12  1  0  0  0  0
 11 13  1  0  0  0  0
 11 14  1  0  0  0  0
 14 15  1  0  0  0  0
 14 16  1  0  0  0  0
 14 17  1  0  0  0  0
 17 18  1  0  0  0  0
 17 19  1  0  0  0  0
 17 20  1  0  0  0  0
M  END
> <VConfSearch Rank>
449

> <Conf_Id>
72

> <Delta U+W>
0.000

> <U+W>
-11.778

> <U>
45.772

> <W>
-57.550

> <W(PB)>
-59.511

> <W(SA)>
1.961

> <Valence>
1.299

> <Coulomb>
44.177

> <VdW>
0.297

> <VdW6>
-3.490

> <VdW12>
3.786

> <Bond>
0.096

> <Angle>
0.381

> <Pdih>
0.822

> <Idih>
0.000

> <Tether>
0.000

$$$$
VeraChem MOL file


 20 19  0  0  0  0  0  0  0  0999 V2000     
   19.7886   18.0571   25.2515 N   0  3  0  0  0  0  0  0  0  0  0  0
   19.1376   18.8060   25.5075 H   0  0  0  0  0  0  0  0  0  0  0  0
   19.2239   17.2386   25.0036 H   0  0  0  0  0  0  0  0  0  0  0  0
   20.3093   17.8128   26.1005 H   0  0  0  0  0  0  0  0  0  0  0  0
   20.7127   18.4704   24.1237 C   0  0  0  0  0  0  0  0  0  0  0  0
   21.3954   17.6397   23.9254 H   0  0  0  0  0  0  0  0  0  0  0  0
   21.3024   19.3250   24.4665 H   0  0  0  0  0  0  0  0  0  0  0  0
   19.9626   18.8437   22.8325 C   0  0  0  0  0  0  0  0  0  0  0  0
   19.3594   17.9882   22.5008 H   0  0  0  0  0  0  0  0  0  0  0  0
   19.2681   19.6657   23.0473 H   0  0  0  0  0  0  0  0  0  0  0  0
   20.9435   19.2561   21.7096 C   0  0  0  0  0  0  0  0  0  0  0  0
   21.6773   18.4514   21.5624 H   0  0  0  0  0  0  0  0  0  0  0  0
   21.5148   20.1407   22.0236 H   0  0  0  0  0  0  0  0  0  0  0  0
   20.2484   19.5423   20.3563 C   0  0  0  0  0  0  0  0  0  0  0  0
   21.0200   19.7233   19.5949 H   0  0  0  0  0  0  0  0  0  0  0  0
   19.6952   18.6517   20.0266 H   0  0  0  0  0  0  0  0  0  0  0  0
   19.2962   20.7593   20.3994 C   0  0  0  0  0  0  0  0  0  0  0  0
   19.8186   21.6575   20.7532 H   0  0  0  0  0  0  0  0  0  0  0  0
   18.9016   20.9738   19.3978 H   0  0  0  0  0  0  0  0  0  0  0  0
   18.4385   20.5776   21.0589 H   0  0  0  0  0  0  0  0  0  0  0  0
  1  2  1  0  0  0  0
  1  3  1  0  0  0  0
  1  4  1  0  0  0  0
  1  5  1  0  0  0  0
  5  6  1  0  0  0  0
  5  7  1  0  0  0  0
  5  8  1  0  0  0  0
  8  9  1  0  0  0  0
  8 10  1  0  0  0  0
  8 11  1  0  0  0  0
 11 12  1  0  0  0  0
 11 13  1  0  0  0  0
 11 14  1  0  0  0  0
 14 15  1  0  0  0  0
 14 16  1  0  0  0  0
 14 17  1  0  0  0  0
 17 18  1  0  0  0  0
 17 19  1  0  0  0  0
 17 20  1  0  0  0  0
M  END
> <VConfSearch Rank>
450

> <Conf_Id>
42

> <Delta U+W>
0.508

> <U+W>
-11.270

> <U>
46.486

> <W>
-57.756

> <W(PB)>
-59.705

> <W(SA)>
1.949

> <Valence>
1.806

> <Coulomb>
44.248

> <VdW>
0.433

> <VdW6>
-4.089

> <VdW12>
4.522

> <Bond>
0.131

> <Angle>
0.628

> <Pdih>
1.047

> <Idih>
0.000

> <Tether>
0.000

$$$$
VeraChem MOL file


 20 19  0  0  0  0  0  0  0  0999 V2000     
   21.6560   20.2740   20.1804 N   0  3  0  0  0  0  0  0  0  0  0  0
   22.5239   19.7390   20.2851 H   0  0  0  0  0  0  0  0  0  0  0  0
   21.0724   19.7720   19.5038 H   0  0  0  0  0  0  0  0  0  0  0  0
   21.9090   21.1689   19.7484 H   0  0  0  0  0  0  0  0  0  0  0  0
   20.9472   20.4689   21.5056 C   0  0  0  0  0  0  0  0  0  0  0  0
   20.0517   21.0695   21.3243 H   0  0  0  0  0  0  0  0  0  0  0  0
   21.6123   21.0346   22.1638 H   0  0  0  0  0  0  0  0  0  0  0  0
   20.5535   19.1436   22.1821 C   0  0  0  0  0  0  0  0  0  0  0  0
   19.9011   18.5768   21.5059 H   0  0  0  0  0  0  0  0  0  0  0  0
   21.4537   18.5370   22.3478 H   0  0  0  0  0  0  0  0  0  0  0  0
   19.8361   19.3900   23.5303 C   0  0  0  0  0  0  0  0  0  0  0  0
   18.9108   19.9576   23.3590 H   0  0  0  0  0  0  0  0  0  0  0  0
   20.4731   20.0227   24.1641 H   0  0  0  0  0  0  0  0  0  0  0  0
   19.5096   18.0891   24.3034 C   0  0  0  0  0  0  0  0  0  0  0  0
   20.4354   17.5297   24.4979 H   0  0  0  0  0  0  0  0  0  0  0  0
   19.1005   18.3570   25.2877 H   0  0  0  0  0  0  0  0  0  0  0  0
   18.4956   17.1784   23.5739 C   0  0  0  0  0  0  0  0  0  0  0  0
   18.9077   16.7855   22.6363 H   0  0  0  0  0  0  0  0  0  0  0  0
   18.2301   16.3186   24.2026 H   0  0  0  0  0  0  0  0  0  0  0  0
   17.5708   17.7226   23.3425 H   0  0  0  0  0  0  0  0  0  0  0  0
  1  2  1  0  0  0  0
  1  3  1  0  0  0  0
  1  4  1  0  0  0  0
  1  5  1  0  0  0  0
  5  6  1  0  0  0  0
  5  7  1  0  0  0  0
  5  8  1  0  0  0  0
  8  9  1  0  0  0  0
  8 10  1  0  0  0  0
  8 11  1  0  0  0  0
 11 12  1  0  0  0  0
 11 13  1  0  0  0  0
 11 14  1  0  0  0  0
 14 15  1  0  0  0  0
 14 16  1  0  0  0  0
 14 17  1  0  0  0  0
 17 18  1  0  0  0  0
 17 19  1  0  0  0  0
 17 20  1  0  0  0  0
M  END
> <VConfSearch Rank>
451

> <Conf_Id>
41

> <Delta U+W>
0.515

> <U+W>
-11.263

> <U>
46.486

> <W>
-57.749

> <W(PB)>
-59.685

> <W(SA)>
1.936

> <Valence>
1.806

> <Coulomb>
44.248

> <VdW>
0.433

> <VdW6>
-4.089

> <VdW12>
4.522

> <Bond>
0.131

> <Angle>
0.628

> <Pdih>
1.047

> <Idih>
0.000

> <Tether>
0.000

$$$$
VeraChem MOL file


 20 19  0  0  0  0  0  0  0  0999 V2000     
   18.8334   21.5446   22.1733 N   0  3  0  0  0  0  0  0  0  0  0  0
   18.3782   22.3767   22.5631 H   0  0  0  0  0  0  0  0  0  0  0  0
   19.8088   21.7970   21.9896 H   0  0  0  0  0  0  0  0  0  0  0  0
   18.3921   21.3610   21.2668 H   0  0  0  0  0  0  0  0  0  0  0  0
   18.7236   20.3542   23.1065 C   0  0  0  0  0  0  0  0  0  0  0  0
   17.6606   20.1743   23.2889 H   0  0  0  0  0  0  0  0  0  0  0  0
   19.1906   20.6235   24.0577 H   0  0  0  0  0  0  0  0  0  0  0  0
   19.3708   19.0677   22.5569 C   0  0  0  0  0  0  0  0  0  0  0  0
   19.1341   18.2484   23.2471 H   0  0  0  0  0  0  0  0  0  0  0  0
   18.9119   18.8095   21.5934 H   0  0  0  0  0  0  0  0  0  0  0  0
   20.9072   19.1913   22.3981 C   0  0  0  0  0  0  0  0  0  0  0  0
   21.3616   19.4272   23.3704 H   0  0  0  0  0  0  0  0  0  0  0  0
   21.1395   20.0356   21.7356 H   0  0  0  0  0  0  0  0  0  0  0  0
   21.5706   17.9210   21.8123 C   0  0  0  0  0  0  0  0  0  0  0  0
   21.1289   17.6885   20.8332 H   0  0  0  0  0  0  0  0  0  0  0  0
   22.6331   18.1324   21.6269 H   0  0  0  0  0  0  0  0  0  0  0  0
   21.4640   16.6870   22.7373 C   0  0  0  0  0  0  0  0  0  0  0  0
   20.4241   16.3579   22.8539 H   0  0  0  0  0  0  0  0  0  0  0  0
   22.0306   15.8445   22.3201 H   0  0  0  0  0  0  0  0  0  0  0  0
   21.8707   16.9035   23.7337 H   0  0  0  0  0  0  0  0  0  0  0  0
  1  2  1  0  0  0  0
  1  3  1  0  0  0  0
  1  4  1  0  0  0  0
  1  5  1  0  0  0  0
  5  6  1  0  0  0  0
  5  7  1  0  0  0  0
  5  8  1  0  0  0  0
  8  9  1  0  0  0  0
  8 10  1  0  0  0  0
  8 11  1  0  0  0  0
 11 12  1  0  0  0  0
 11 13  1  0  0  0  0
 11 14  1  0  0  0  0
 14 15  1  0  0  0  0
 14 16  1  0  0  0  0
 14 17  1  0  0  0  0
 17 18  1  0  0  0  0
 17 19  1  0  0  0  0
 17 20  1  0  0  0  0
M  END
> <VConfSearch Rank>
452

> <Conf_Id>
33

> <Delta U+W>
0.703

> <U+W>
-11.075

> <U>
47.080

> <W>
-58.154

> <W(PB)>
-60.053

> <W(SA)>
1.899

> <Valence>
1.943

> <Coulomb>
44.572

> <VdW>
0.565

> <VdW6>
-4.575

> <VdW12>
5.139

> <Bond>
0.158

> <Angle>
0.700

> <Pdih>
1.085

> <Idih>
0.000

> <Tether>
0.000

$$$$
VeraChem MOL file


 20 19  0  0  0  0  0  0  0  0999 V2000     
   21.3774   17.2380   24.0690 N   0  3  0  0  0  0  0  0  0  0  0  0
   21.8232   16.9532   24.9474 H   0  0  0  0  0  0  0  0  0  0  0  0
   20.9314   16.4027   23.6771 H   0  0  0  0  0  0  0  0  0  0  0  0
   22.1285   17.5092   23.4278 H   0  0  0  0  0  0  0  0  0  0  0  0
   20.3823   18.3626   24.2819 C   0  0  0  0  0  0  0  0  0  0  0  0
   20.9157   19.2100   24.7211 H   0  0  0  0  0  0  0  0  0  0  0  0
   19.6411   18.0151   25.0068 H   0  0  0  0  0  0  0  0  0  0  0  0
   19.6636   18.8128   22.9948 C   0  0  0  0  0  0  0  0  0  0  0  0
   19.1434   17.9559   22.5467 H   0  0  0  0  0  0  0  0  0  0  0  0
   18.8899   19.5382   23.2754 H   0  0  0  0  0  0  0  0  0  0  0  0
   20.6280   19.4489   21.9620 C   0  0  0  0  0  0  0  0  0  0  0  0
   21.4209   18.7317   21.7123 H   0  0  0  0  0  0  0  0  0  0  0  0
   21.1279   20.3189   22.4099 H   0  0  0  0  0  0  0  0  0  0  0  0
   19.9299   19.8743   20.6472 C   0  0  0  0  0  0  0  0  0  0  0  0
   20.6965   20.2064   19.9332 H   0  0  0  0  0  0  0  0  0  0  0  0
   19.4396   19.0045   20.1881 H   0  0  0  0  0  0  0  0  0  0  0  0
   18.9006   21.0123   20.8356 C   0  0  0  0  0  0  0  0  0  0  0  0
   19.3588   21.8832   21.3221 H   0  0  0  0  0  0  0  0  0  0  0  0
   18.5080   21.3394   19.8641 H   0  0  0  0  0  0  0  0  0  0  0  0
   18.0465   20.6884   21.4428 H   0  0  0  0  0  0  0  0  0  0  0  0
  1  2  1  0  0  0  0
  1  3  1  0  0  0  0
  1  4  1  0  0  0  0
  1  5  1  0  0  0  0
  5  6  1  0  0  0  0
  5  7  1  0  0  0  0
  5  8  1  0  0  0  0
  8  9  1  0  0  0  0
  8 10  1  0  0  0  0
  8 11  1  0  0  0  0
 11 12  1  0  0  0  0
 11 13  1  0  0  0  0
 11 14  1  0  0  0  0
 14 15  1  0  0  0  0
 14 16  1  0  0  0  0
 14 17  1  0  0  0  0
 17 18  1  0  0  0  0
 17 19  1  0  0  0  0
 17 20  1  0  0  0  0
M  END
> <VConfSearch Rank>
453

> <Conf_Id>
24

> <Delta U+W>
0.847

> <U+W>
-10.931

> <U>
47.080

> <W>
-58.011

> <W(PB)>
-59.914

> <W(SA)>
1.903

> <Valence>
1.943

> <Coulomb>
44.572

> <VdW>
0.565

> <VdW6>
-4.575

> <VdW12>
5.140

> <Bond>
0.158

> <Angle>
0.700

> <Pdih>
1.085

> <Idih>
0.000

> <Tether>
0.000

$$$$
VeraChem MOL file


 20 19  0  0  0  0  0  0  0  0999 V2000     
   17.5505   18.3914   22.0436 N   0  3  0  0  0  0  0  0  0  0  0  0
   17.0677   18.3313   21.1409 H   0  0  0  0  0  0  0  0  0  0  0  0
   17.7775   17.4321   22.3238 H   0  0  0  0  0  0  0  0  0  0  0  0
   16.8701   18.7500   22.7209 H   0  0  0  0  0  0  0  0  0  0  0  0
   18.7855   19.2659   21.9646 C   0  0  0  0  0  0  0  0  0  0  0  0
   18.4748   20.2606   21.6338 H   0  0  0  0  0  0  0  0  0  0  0  0
   19.4487   18.8426   21.2057 H   0  0  0  0  0  0  0  0  0  0  0  0
   19.5354   19.3768   23.3055 C   0  0  0  0  0  0  0  0  0  0  0  0
   18.8485   19.7637   24.0700 H   0  0  0  0  0  0  0  0  0  0  0  0
   19.8397   18.3779   23.6430 H   0  0  0  0  0  0  0  0  0  0  0  0
   20.7705   20.3086   23.2264 C   0  0  0  0  0  0  0  0  0  0  0  0
   21.2485   20.3512   24.2148 H   0  0  0  0  0  0  0  0  0  0  0  0
   20.4321   21.3315   23.0103 H   0  0  0  0  0  0  0  0  0  0  0  0
   21.8279   19.8993   22.1692 C   0  0  0  0  0  0  0  0  0  0  0  0
   21.3966   19.9533   21.1603 H   0  0  0  0  0  0  0  0  0  0  0  0
   22.6441   20.6351   22.1873 H   0  0  0  0  0  0  0  0  0  0  0  0
   22.4212   18.4920   22.4063 C   0  0  0  0  0  0  0  0  0  0  0  0
   23.2276   18.2889   21.6897 H   0  0  0  0  0  0  0  0  0  0  0  0
   22.8409   18.4055   23.4169 H   0  0  0  0  0  0  0  0  0  0  0  0
   21.6633   17.7088   22.2801 H   0  0  0  0  0  0  0  0  0  0  0  0
  1  2  1  0  0  0  0
  1  3  1  0  0  0  0
  1  4  1  0  0  0  0
  1  5  1  0  0  0  0
  5  6  1  0  0  0  0
  5  7  1  0  0  0  0
  5  8  1  0  0  0  0
  8  9  1  0  0  0  0
  8 10  1  0  0  0  0
  8 11  1  0  0  0  0
 11 12  1  0  0  0  0
 11 13  1  0  0  0  0
 11 14  1  0  0  0  0
 14 15  1  0  0  0  0
 14 16  1  0  0  0  0
 14 17  1  0  0  0  0
 17 18  1  0  0  0  0
 17 19  1  0  0  0  0
 17 20  1  0  0  0  0
M  END
> <VConfSearch Rank>
454

> <Conf_Id>
64

> <Delta U+W>
0.707

> <U+W>
-11.070

> <U>
47.077

> <W>
-58.148

> <W(PB)>
-60.054

> <W(SA)>
1.906

> <Valence>
2.039

> <Coulomb>
44.655

> <VdW>
0.383

> <VdW6>
-4.912

> <VdW12>
5.295

> <Bond>
0.159

> <Angle>
0.856

> <Pdih>
1.024

> <Idih>
0.000

> <Tether>
0.000

$$$$
VeraChem MOL file


 20 19  0  0  0  0  0  0  0  0999 V2000     
   18.3367   17.6491   23.9279 N   0  3  0  0  0  0  0  0  0  0  0  0
   17.4814   17.4276   23.4086 H   0  0  0  0  0  0  0  0  0  0  0  0
   18.9239   16.8093   23.9134 H   0  0  0  0  0  0  0  0  0  0  0  0
   18.0608   17.8024   24.9035 H   0  0  0  0  0  0  0  0  0  0  0  0
   19.0543   18.8521   23.3499 C   0  0  0  0  0  0  0  0  0  0  0  0
   19.9345   19.0472   23.9681 H   0  0  0  0  0  0  0  0  0  0  0  0
   18.3844   19.7130   23.4237 H   0  0  0  0  0  0  0  0  0  0  0  0
   19.4835   18.6542   21.8838 C   0  0  0  0  0  0  0  0  0  0  0  0
   20.1487   17.7847   21.8072 H   0  0  0  0  0  0  0  0  0  0  0  0
   18.5978   18.4180   21.2793 H   0  0  0  0  0  0  0  0  0  0  0  0
   20.1759   19.9053   21.2877 C   0  0  0  0  0  0  0  0  0  0  0  0
   19.4531   20.7324   21.2576 H   0  0  0  0  0  0  0  0  0  0  0  0
   20.4434   19.7000   20.2420 H   0  0  0  0  0  0  0  0  0  0  0  0
   21.4403   20.3755   22.0515 C   0  0  0  0  0  0  0  0  0  0  0  0
   21.8350   21.2736   21.5560 H   0  0  0  0  0  0  0  0  0  0  0  0
   21.1742   20.6867   23.0709 H   0  0  0  0  0  0  0  0  0  0  0  0
   22.5563   19.3076   22.1087 C   0  0  0  0  0  0  0  0  0  0  0  0
   22.8263   18.9643   21.1017 H   0  0  0  0  0  0  0  0  0  0  0  0
   23.4597   19.7204   22.5759 H   0  0  0  0  0  0  0  0  0  0  0  0
   22.2492   18.4353   22.6990 H   0  0  0  0  0  0  0  0  0  0  0  0
  1  2  1  0  0  0  0
  1  3  1  0  0  0  0
  1  4  1  0  0  0  0
  1  5  1  0  0  0  0
  5  6  1  0  0  0  0
  5  7  1  0  0  0  0
  5  8  1  0  0  0  0
  8  9  1  0  0  0  0
  8 10  1  0  0  0  0
  8 11  1  0  0  0  0
 11 12  1  0  0  0  0
 11 13  1  0  0  0  0
 11 14  1  0  0  0  0
 14 15  1  0  0  0  0
 14 16  1  0  0  0  0
 14 17  1  0  0  0  0
 17 18  1  0  0  0  0
 17 19  1  0  0  0  0
 17 20  1  0  0  0  0
M  END
> <VConfSearch Rank>
455

> <Conf_Id>
22

> <Delta U+W>
0.731

> <U+W>
-11.047

> <U>
47.078

> <W>
-58.125

> <W(PB)>
-60.031

> <W(SA)>
1.906

> <Valence>
2.039

> <Coulomb>
44.655

> <VdW>
0.383

> <VdW6>
-4.913

> <VdW12>
5.296

> <Bond>
0.159

> <Angle>
0.856

> <Pdih>
1.024

> <Idih>
0.000

> <Tether>
0.000

$$$$
VeraChem MOL file


 20 19  0  0  0  0  0  0  0  0999 V2000     
   19.9321   19.2837   19.7601 N   0  3  0  0  0  0  0  0  0  0  0  0
   19.8683   18.2884   19.5240 H   0  0  0  0  0  0  0  0  0  0  0  0
   19.0607   19.7236   19.4478 H   0  0  0  0  0  0  0  0  0  0  0  0
   20.6856   19.6776   19.1870 H   0  0  0  0  0  0  0  0  0  0  0  0
   20.1773   19.5003   21.2398 C   0  0  0  0  0  0  0  0  0  0  0  0
   20.2615   20.5763   21.4149 H   0  0  0  0  0  0  0  0  0  0  0  0
   21.1318   19.0315   21.4897 H   0  0  0  0  0  0  0  0  0  0  0  0
   19.0655   18.9150   22.1285 C   0  0  0  0  0  0  0  0  0  0  0  0
   18.0977   19.3051   21.7860 H   0  0  0  0  0  0  0  0  0  0  0  0
   19.0255   17.8258   21.9942 H   0  0  0  0  0  0  0  0  0  0  0  0
   19.2236   19.2481   23.6338 C   0  0  0  0  0  0  0  0  0  0  0  0
   18.3348   18.8621   24.1520 H   0  0  0  0  0  0  0  0  0  0  0  0
   19.2058   20.3363   23.7849 H   0  0  0  0  0  0  0  0  0  0  0  0
   20.4767   18.6340   24.3104 C   0  0  0  0  0  0  0  0  0  0  0  0
   20.2526   18.4796   25.3753 H   0  0  0  0  0  0  0  0  0  0  0  0
   20.6825   17.6364   23.8980 H   0  0  0  0  0  0  0  0  0  0  0  0
   21.7387   19.5237   24.2176 C   0  0  0  0  0  0  0  0  0  0  0  0
   22.0828   19.6511   23.1860 H   0  0  0  0  0  0  0  0  0  0  0  0
   21.5504   20.5195   24.6395 H   0  0  0  0  0  0  0  0  0  0  0  0
   22.5646   19.0745   24.7844 H   0  0  0  0  0  0  0  0  0  0  0  0
  1  2  1  0  0  0  0
  1  3  1  0  0  0  0
  1  4  1  0  0  0  0
  1  5  1  0  0  0  0
  5  6  1  0  0  0  0
  5  7  1  0  0  0  0
  5  8  1  0  0  0  0
  8  9  1  0  0  0  0
  8 10  1  0  0  0  0
  8 11  1  0  0  0  0
 11 12  1  0  0  0  0
 11 13  1  0  0  0  0
 11 14  1  0  0  0  0
 14 15  1  0  0  0  0
 14 16  1  0  0  0  0
 14 17  1  0  0  0  0
 17 18  1  0  0  0  0
 17 19  1  0  0  0  0
 17 20  1  0  0  0  0
M  END
> <VConfSearch Rank>
456

> <Conf_Id>
61

> <Delta U+W>
2.669

> <U+W>
-9.108

> <U>
48.916

> <W>
-58.025

> <W(PB)>
-59.935

> <W(SA)>
1.911

> <Valence>
3.785

> <Coulomb>
44.716

> <VdW>
0.415

> <VdW6>
-4.836

> <VdW12>
5.251

> <Bond>
0.175

> <Angle>
1.195

> <Pdih>
2.415

> <Idih>
0.000

> <Tether>
0.000

$$$$
VeraChem MOL file


 20 19  0  0  0  0  0  0  0  0999 V2000     
   17.8438   18.9771   22.3292 N   0  3  0  0  0  0  0  0  0  0  0  0
   16.9917   19.5366   22.2163 H   0  0  0  0  0  0  0  0  0  0  0  0
   17.5443   18.0211   22.5451 H   0  0  0  0  0  0  0  0  0  0  0  0
   18.3310   19.3348   23.1548 H   0  0  0  0  0  0  0  0  0  0  0  0
   18.7166   19.0268   21.0897 C   0  0  0  0  0  0  0  0  0  0  0  0
   18.9571   20.0713   20.8742 H   0  0  0  0  0  0  0  0  0  0  0  0
   18.1154   18.6410   20.2618 H   0  0  0  0  0  0  0  0  0  0  0  0
   20.0158   18.2004   21.1927 C   0  0  0  0  0  0  0  0  0  0  0  0
   19.8094   17.2322   21.6678 H   0  0  0  0  0  0  0  0  0  0  0  0
   20.3462   17.9697   20.1712 H   0  0  0  0  0  0  0  0  0  0  0  0
   21.1822   18.9204   21.9172 C   0  0  0  0  0  0  0  0  0  0  0  0
   21.4141   19.8588   21.3947 H   0  0  0  0  0  0  0  0  0  0  0  0
   22.0792   18.2920   21.8286 H   0  0  0  0  0  0  0  0  0  0  0  0
   20.9241   19.2136   23.4138 C   0  0  0  0  0  0  0  0  0  0  0  0
   20.1261   19.9594   23.5188 H   0  0  0  0  0  0  0  0  0  0  0  0
   20.5868   18.2989   23.9212 H   0  0  0  0  0  0  0  0  0  0  0  0
   22.1913   19.7481   24.1150 C   0  0  0  0  0  0  0  0  0  0  0  0
   21.9889   19.9601   25.1729 H   0  0  0  0  0  0  0  0  0  0  0  0
   23.0075   19.0154   24.0695 H   0  0  0  0  0  0  0  0  0  0  0  0
   22.5398   20.6775   23.6460 H   0  0  0  0  0  0  0  0  0  0  0  0
  1  2  1  0  0  0  0
  1  3  1  0  0  0  0
  1  4  1  0  0  0  0
  1  5  1  0  0  0  0
  5  6  1  0  0  0  0
  5  7  1  0  0  0  0
  5  8  1  0  0  0  0
  8  9  1  0  0  0  0
  8 10  1  0  0  0  0
  8 11  1  0  0  0  0
 11 12  1  0  0  0  0
 11 13  1  0  0  0  0
 11 14  1  0  0  0  0
 14 15  1  0  0  0  0
 14 16  1  0  0  0  0
 14 17  1  0  0  0  0
 17 18  1  0  0  0  0
 17 19  1  0  0  0  0
 17 20  1  0  0  0  0
M  END
> <VConfSearch Rank>
457

> <Conf_Id>
69

> <Delta U+W>
2.811

> <U+W>
-8.967

> <U>
49.216

> <W>
-58.183

> <W(PB)>
-60.064

> <W(SA)>
1.881

> <Valence>
2.929

> <Coulomb>
46.006

> <VdW>
0.281

> <VdW6>
-4.909

> <VdW12>
5.190

> <Bond>
0.156

> <Angle>
0.974

> <Pdih>
1.799

> <Idih>
0.000

> <Tether>
0.000

$$$$
VeraChem MOL file


 20 19  0  0  0  0  0  0  0  0999 V2000     
   22.1820   18.5954   21.7044 N   0  3  0  0  0  0  0  0  0  0  0  0
   21.6582   17.9959   22.3472 H   0  0  0  0  0  0  0  0  0  0  0  0
   22.0982   18.1830   20.7699 H   0  0  0  0  0  0  0  0  0  0  0  0
   23.1704   18.5305   21.9697 H   0  0  0  0  0  0  0  0  0  0  0  0
   21.6855   20.0283   21.7334 C   0  0  0  0  0  0  0  0  0  0  0  0
   22.3052   20.5938   21.0321 H   0  0  0  0  0  0  0  0  0  0  0  0
   21.8518   20.4348   22.7346 H   0  0  0  0  0  0  0  0  0  0  0  0
   20.2030   20.1963   21.3393 C   0  0  0  0  0  0  0  0  0  0  0  0
   20.0630   21.2315   21.0008 H   0  0  0  0  0  0  0  0  0  0  0  0
   19.9695   19.5627   20.4734 H   0  0  0  0  0  0  0  0  0  0  0  0
   19.1965   19.9330   22.4888 C   0  0  0  0  0  0  0  0  0  0  0  0
   18.1913   20.1933   22.1291 H   0  0  0  0  0  0  0  0  0  0  0  0
   19.4078   20.6152   23.3239 H   0  0  0  0  0  0  0  0  0  0  0  0
   19.1797   18.4752   23.0054 C   0  0  0  0  0  0  0  0  0  0  0  0
   19.0761   17.7802   22.1603 H   0  0  0  0  0  0  0  0  0  0  0  0
   20.1280   18.2426   23.5060 H   0  0  0  0  0  0  0  0  0  0  0  0
   18.0263   18.2392   24.0039 C   0  0  0  0  0  0  0  0  0  0  0  0
   17.0516   18.4222   23.5331 H   0  0  0  0  0  0  0  0  0  0  0  0
   18.0343   17.2036   24.3681 H   0  0  0  0  0  0  0  0  0  0  0  0
   18.1155   18.9027   24.8741 H   0  0  0  0  0  0  0  0  0  0  0  0
  1  2  1  0  0  0  0
  1  3  1  0  0  0  0
  1  4  1  0  0  0  0
  1  5  1  0  0  0  0
  5  6  1  0  0  0  0
  5  7  1  0  0  0  0
  5  8  1  0  0  0  0
  8  9  1  0  0  0  0
  8 10  1  0  0  0  0
  8 11  1  0  0  0  0
 11 12  1  0  0  0  0
 11 13  1  0  0  0  0
 11 14  1  0  0  0  0
 14 15  1  0  0  0  0
 14 16  1  0  0  0  0
 14 17  1  0  0  0  0
 17 18  1  0  0  0  0
 17 19  1  0  0  0  0
 17 20  1  0  0  0  0
M  END
> <VConfSearch Rank>
458

> <Conf_Id>
26

> <Delta U+W>
2.809

> <U+W>
-8.969

> <U>
49.216

> <W>
-58.185

> <W(PB)>
-60.088

> <W(SA)>
1.903

> <Valence>
2.929

> <Coulomb>
46.006

> <VdW>
0.281

> <VdW6>
-4.909

> <VdW12>
5.190

> <Bond>
0.156

> <Angle>
0.974

> <Pdih>
1.799

> <Idih>
0.000

> <Tether>
0.000

$$$$
VeraChem MOL file


 20 19  0  0  0  0  0  0  0  0999 V2000     
   22.5492   19.2273   22.4760 N   0  3  0  0  0  0  0  0  0  0  0  0
   22.2698   18.2419   22.4707 H   0  0  0  0  0  0  0  0  0  0  0  0
   23.0184   19.4137   21.5843 H   0  0  0  0  0  0  0  0  0  0  0  0
   23.2540   19.3361   23.2126 H   0  0  0  0  0  0  0  0  0  0  0  0
   21.3622   20.1458   22.6912 C   0  0  0  0  0  0  0  0  0  0  0  0
   21.7362   21.1729   22.7166 H   0  0  0  0  0  0  0  0  0  0  0  0
   20.9294   19.9185   23.6690 H   0  0  0  0  0  0  0  0  0  0  0  0
   20.2779   20.0229   21.6015 C   0  0  0  0  0  0  0  0  0  0  0  0
   19.4984   20.7717   21.7920 H   0  0  0  0  0  0  0  0  0  0  0  0
   20.7145   20.2860   20.6290 H   0  0  0  0  0  0  0  0  0  0  0  0
   19.6349   18.6141   21.5080 C   0  0  0  0  0  0  0  0  0  0  0  0
   20.3865   17.8940   21.1574 H   0  0  0  0  0  0  0  0  0  0  0  0
   18.8565   18.6316   20.7327 H   0  0  0  0  0  0  0  0  0  0  0  0
   19.0177   18.0918   22.8306 C   0  0  0  0  0  0  0  0  0  0  0  0
   18.6137   17.0849   22.6554 H   0  0  0  0  0  0  0  0  0  0  0  0
   19.7984   17.9745   23.5944 H   0  0  0  0  0  0  0  0  0  0  0  0
   17.8877   18.9931   23.3777 C   0  0  0  0  0  0  0  0  0  0  0  0
   17.1011   19.1401   22.6263 H   0  0  0  0  0  0  0  0  0  0  0  0
   17.4254   18.5361   24.2622 H   0  0  0  0  0  0  0  0  0  0  0  0
   18.2670   19.9785   23.6758 H   0  0  0  0  0  0  0  0  0  0  0  0
  1  2  1  0  0  0  0
  1  3  1  0  0  0  0
  1  4  1  0  0  0  0
  1  5  1  0  0  0  0
  5  6  1  0  0  0  0
  5  7  1  0  0  0  0
  5  8  1  0  0  0  0
  8  9  1  0  0  0  0
  8 10  1  0  0  0  0
  8 11  1  0  0  0  0
 11 12  1  0  0  0  0
 11 13  1  0  0  0  0
 11 14  1  0  0  0  0
 14 15  1  0  0  0  0
 14 16  1  0  0  0  0
 14 17  1  0  0  0  0
 17 18  1  0  0  0  0
 17 19  1  0  0  0  0
 17 20  1  0  0  0  0
M  END
> <VConfSearch Rank>
459

> <Conf_Id>
2

> <Delta U+W>
0.994

> <U+W>
-10.784

> <U>
47.562

> <W>
-58.346

> <W(PB)>
-60.221

> <W(SA)>
1.875

> <Valence>
2.149

> <Coulomb>
45.034

> <VdW>
0.378

> <VdW6>
-5.599

> <VdW12>
5.977

> <Bond>
0.185

> <Angle>
0.935

> <Pdih>
1.028

> <Idih>
0.000

> <Tether>
0.000

$$$$
VeraChem MOL file


 20 19  0  0  0  0  0  0  0  0999 V2000     
   18.8796   20.1076   20.6934 N   0  3  0  0  0  0  0  0  0  0  0  0
   19.3531   20.2659   19.7985 H   0  0  0  0  0  0  0  0  0  0  0  0
   18.6153   19.1186   20.7252 H   0  0  0  0  0  0  0  0  0  0  0  0
   18.0101   20.6506   20.6711 H   0  0  0  0  0  0  0  0  0  0  0  0
   19.7548   20.4927   21.8701 C   0  0  0  0  0  0  0  0  0  0  0  0
   19.1817   20.3318   22.7870 H   0  0  0  0  0  0  0  0  0  0  0  0
   19.9711   21.5614   21.7887 H   0  0  0  0  0  0  0  0  0  0  0  0
   21.0796   19.7064   21.9405 C   0  0  0  0  0  0  0  0  0  0  0  0
   21.6621   19.9018   21.0305 H   0  0  0  0  0  0  0  0  0  0  0  0
   21.6805   20.0994   22.7706 H   0  0  0  0  0  0  0  0  0  0  0  0
   20.8958   18.1752   22.1100 C   0  0  0  0  0  0  0  0  0  0  0  0
   21.8866   17.7063   22.1837 H   0  0  0  0  0  0  0  0  0  0  0  0
   20.4386   17.7612   21.2013 H   0  0  0  0  0  0  0  0  0  0  0  0
   20.0459   17.7541   23.3362 C   0  0  0  0  0  0  0  0  0  0  0  0
   19.0197   18.1327   23.2359 H   0  0  0  0  0  0  0  0  0  0  0  0
   19.9634   16.6582   23.3459 H   0  0  0  0  0  0  0  0  0  0  0  0
   20.6416   18.2202   24.6841 C   0  0  0  0  0  0  0  0  0  0  0  0
   20.6390   19.3140   24.7688 H   0  0  0  0  0  0  0  0  0  0  0  0
   20.0542   17.8229   25.5220 H   0  0  0  0  0  0  0  0  0  0  0  0
   21.6746   17.8683   24.8020 H   0  0  0  0  0  0  0  0  0  0  0  0
  1  2  1  0  0  0  0
  1  3  1  0  0  0  0
  1  4  1  0  0  0  0
  1  5  1  0  0  0  0
  5  6  1  0  0  0  0
  5  7  1  0  0  0  0
  5  8  1  0  0  0  0
  8  9  1  0  0  0  0
  8 10  1  0  0  0  0
  8 11  1  0  0  0  0
 11 12  1  0  0  0  0
 11 13  1  0  0  0  0
 11 14  1  0  0  0  0
 14 15  1  0  0  0  0
 14 16  1  0  0  0  0
 14 17  1  0  0  0  0
 17 18  1  0  0  0  0
 17 19  1  0  0  0  0
 17 20  1  0  0  0  0
M  END
> <VConfSearch Rank>
460

> <Conf_Id>
1

> <Delta U+W>
1.032

> <U+W>
-10.746

> <U>
47.562

> <W>
-58.308

> <W(PB)>
-60.184

> <W(SA)>
1.877

> <Valence>
2.149

> <Coulomb>
45.035

> <VdW>
0.378

> <VdW6>
-5.599

> <VdW12>
5.978

> <Bond>
0.185

> <Angle>
0.935

> <Pdih>
1.028

> <Idih>
0.000

> <Tether>
0.000

$$$$
VeraChem MOL file


 20 19  0  0  0  0  0  0  0  0999 V2000     
   21.4788   17.4678   21.3958 N   0  3  0  0  0  0  0  0  0  0  0  0
   22.2149   17.7548   20.7433 H   0  0  0  0  0  0  0  0  0  0  0  0
   21.8543   17.5757   22.3424 H   0  0  0  0  0  0  0  0  0  0  0  0
   21.3236   16.4651   21.2479 H   0  0  0  0  0  0  0  0  0  0  0  0
   20.2065   18.2693   21.1995 C   0  0  0  0  0  0  0  0  0  0  0  0
   19.4603   17.8928   21.9009 H   0  0  0  0  0  0  0  0  0  0  0  0
   19.8461   18.0704   20.1865 H   0  0  0  0  0  0  0  0  0  0  0  0
   20.3940   19.7909   21.3798 C   0  0  0  0  0  0  0  0  0  0  0  0
   21.1570   20.1269   20.6652 H   0  0  0  0  0  0  0  0  0  0  0  0
   19.4679   20.3076   21.0952 H   0  0  0  0  0  0  0  0  0  0  0  0
   20.8165   20.2287   22.8081 C   0  0  0  0  0  0  0  0  0  0  0  0
   21.3141   21.2051   22.7272 H   0  0  0  0  0  0  0  0  0  0  0  0
   21.5752   19.5471   23.2137 H   0  0  0  0  0  0  0  0  0  0  0  0
   19.6510   20.3855   23.8186 C   0  0  0  0  0  0  0  0  0  0  0  0
   20.0604   20.7852   24.7570 H   0  0  0  0  0  0  0  0  0  0  0  0
   18.9418   21.1409   23.4522 H   0  0  0  0  0  0  0  0  0  0  0  0
   18.8916   19.0776   24.1327 C   0  0  0  0  0  0  0  0  0  0  0  0
   19.5841   18.2666   24.3924 H   0  0  0  0  0  0  0  0  0  0  0  0
   18.2137   19.2247   24.9834 H   0  0  0  0  0  0  0  0  0  0  0  0
   18.2774   18.7582   23.2825 H   0  0  0  0  0  0  0  0  0  0  0  0
  1  2  1  0  0  0  0
  1  3  1  0  0  0  0
  1  4  1  0  0  0  0
  1  5  1  0  0  0  0
  5  6  1  0  0  0  0
  5  7  1  0  0  0  0
  5  8  1  0  0  0  0
  8  9  1  0  0  0  0
  8 10  1  0  0  0  0
  8 11  1  0  0  0  0
 11 12  1  0  0  0  0
 11 13  1  0  0  0  0
 11 14  1  0  0  0  0
 14 15  1  0  0  0  0
 14 16  1  0  0  0  0
 14 17  1  0  0  0  0
 17 18  1  0  0  0  0
 17 19  1  0  0  0  0
 17 20  1  0  0  0  0
M  END
> <VConfSearch Rank>
461

> <Conf_Id>
80

> <Delta U+W>
2.920

> <U+W>
-8.857

> <U>
49.434

> <W>
-58.292

> <W(PB)>
-60.170

> <W(SA)>
1.879

> <Valence>
3.798

> <Coulomb>
45.253

> <VdW>
0.384

> <VdW6>
-5.595

> <VdW12>
5.979

> <Bond>
0.198

> <Angle>
1.368

> <Pdih>
2.231

> <Idih>
0.000

> <Tether>
0.000

$$$$
VeraChem MOL file


 20 19  0  0  0  0  0  0  0  0999 V2000     
   20.4533   21.5166   22.6336 N   0  3  0  0  0  0  0  0  0  0  0  0
   20.4163   21.9595   23.5570 H   0  0  0  0  0  0  0  0  0  0  0  0
   20.8174   22.2184   21.9808 H   0  0  0  0  0  0  0  0  0  0  0  0
   19.4882   21.3198   22.3533 H   0  0  0  0  0  0  0  0  0  0  0  0
   21.3044   20.2615   22.6432 C   0  0  0  0  0  0  0  0  0  0  0  0
   22.3230   20.5576   22.9086 H   0  0  0  0  0  0  0  0  0  0  0  0
   21.3252   19.8616   21.6283 H   0  0  0  0  0  0  0  0  0  0  0  0
   20.8162   19.1845   23.6353 C   0  0  0  0  0  0  0  0  0  0  0  0
   21.5513   18.3700   23.6786 H   0  0  0  0  0  0  0  0  0  0  0  0
   20.8007   19.6286   24.6395 H   0  0  0  0  0  0  0  0  0  0  0  0
   19.4115   18.6019   23.3225 C   0  0  0  0  0  0  0  0  0  0  0  0
   18.7203   19.3988   23.0196 H   0  0  0  0  0  0  0  0  0  0  0  0
   18.9994   18.1973   24.2573 H   0  0  0  0  0  0  0  0  0  0  0  0
   19.3931   17.4584   22.2755 C   0  0  0  0  0  0  0  0  0  0  0  0
   20.0118   16.6218   22.6293 H   0  0  0  0  0  0  0  0  0  0  0  0
   18.3675   17.0690   22.2090 H   0  0  0  0  0  0  0  0  0  0  0  0
   19.8523   17.8743   20.8606 C   0  0  0  0  0  0  0  0  0  0  0  0
   20.9332   18.0553   20.8284 H   0  0  0  0  0  0  0  0  0  0  0  0
   19.6371   17.0754   20.1392 H   0  0  0  0  0  0  0  0  0  0  0  0
   19.3325   18.7800   20.5224 H   0  0  0  0  0  0  0  0  0  0  0  0
  1  2  1  0  0  0  0
  1  3  1  0  0  0  0
  1  4  1  0  0  0  0
  1  5  1  0  0  0  0
  5  6  1  0  0  0  0
  5  7  1  0  0  0  0
  5  8  1  0  0  0  0
  8  9  1  0  0  0  0
  8 10  1  0  0  0  0
  8 11  1  0  0  0  0
 11 12  1  0  0  0  0
 11 13  1  0  0  0  0
 11 14  1  0  0  0  0
 14 15  1  0  0  0  0
 14 16  1  0  0  0  0
 14 17  1  0  0  0  0
 17 18  1  0  0  0  0
 17 19  1  0  0  0  0
 17 20  1  0  0  0  0
M  END
> <VConfSearch Rank>
462

> <Conf_Id>
65

> <Delta U+W>
2.949

> <U+W>
-8.829

> <U>
49.435

> <W>
-58.263

> <W(PB)>
-60.125

> <W(SA)>
1.862

> <Valence>
3.797

> <Coulomb>
45.253

> <VdW>
0.384

> <VdW6>
-5.596

> <VdW12>
5.980

> <Bond>
0.198

> <Angle>
1.369

> <Pdih>
2.230

> <Idih>
0.000

> <Tether>
0.000

$$$$
VeraChem MOL file


 20 19  0  0  0  0  0  0  0  0999 V2000     
   19.9068   19.8968   24.3011 N   0  3  0  0  0  0  0  0  0  0  0  0
   20.4523   19.9092   25.1694 H   0  0  0  0  0  0  0  0  0  0  0  0
   20.4432   20.4108   23.5955 H   0  0  0  0  0  0  0  0  0  0  0  0
   19.0495   20.4292   24.4800 H   0  0  0  0  0  0  0  0  0  0  0  0
   19.6057   18.4824   23.8448 C   0  0  0  0  0  0  0  0  0  0  0  0
   19.0338   18.0037   24.6444 H   0  0  0  0  0  0  0  0  0  0  0  0
   20.5492   17.9417   23.7323 H   0  0  0  0  0  0  0  0  0  0  0  0
   18.7983   18.4056   22.5331 C   0  0  0  0  0  0  0  0  0  0  0  0
   18.2882   17.4334   22.5118 H   0  0  0  0  0  0  0  0  0  0  0  0
   18.0009   19.1606   22.5426 H   0  0  0  0  0  0  0  0  0  0  0  0
   19.6366   18.5287   21.2323 C   0  0  0  0  0  0  0  0  0  0  0  0
   18.9482   18.4025   20.3851 H   0  0  0  0  0  0  0  0  0  0  0  0
   20.3442   17.6910   21.1622 H   0  0  0  0  0  0  0  0  0  0  0  0
   20.3844   19.8736   21.0463 C   0  0  0  0  0  0  0  0  0  0  0  0
   20.3817   20.1306   19.9776 H   0  0  0  0  0  0  0  0  0  0  0  0
   19.8422   20.6873   21.5466 H   0  0  0  0  0  0  0  0  0  0  0  0
   21.8577   19.8196   21.5154 C   0  0  0  0  0  0  0  0  0  0  0  0
   21.9545   19.4995   22.5584 H   0  0  0  0  0  0  0  0  0  0  0  0
   22.4328   19.1148   20.9008 H   0  0  0  0  0  0  0  0  0  0  0  0
   22.3313   20.8052   21.4177 H   0  0  0  0  0  0  0  0  0  0  0  0
  1  2  1  0  0  0  0
  1  3  1  0  0  0  0
  1  4  1  0  0  0  0
  1  5  1  0  0  0  0
  5  6  1  0  0  0  0
  5  7  1  0  0  0  0
  5  8  1  0  0  0  0
  8  9  1  0  0  0  0
  8 10  1  0  0  0  0
  8 11  1  0  0  0  0
 11 12  1  0  0  0  0
 11 13  1  0  0  0  0
 11 14  1  0  0  0  0
 14 15  1  0  0  0  0
 14 16  1  0  0  0  0
 14 17  1  0  0  0  0
 17 18  1  0  0  0  0
 17 19  1  0  0  0  0
 17 20  1  0  0  0  0
M  END
> <VConfSearch Rank>
463

> <Conf_Id>
77

> <Delta U+W>
5.366

> <U+W>
-6.412

> <U>
51.542

> <W>
-57.954

> <W(PB)>
-59.811

> <W(SA)>
1.857

> <Valence>
5.347

> <Coulomb>
45.870

> <VdW>
0.325

> <VdW6>
-6.161

> <VdW12>
6.486

> <Bond>
0.201

> <Angle>
1.484

> <Pdih>
3.662

> <Idih>
0.000

> <Tether>
0.000

$$$$
VeraChem MOL file


 20 19  0  0  0  0  0  0  0  0999 V2000     
   21.2982   18.9911   20.8130 N   0  3  0  0  0  0  0  0  0  0  0  0
   20.8330   18.5980   19.9888 H   0  0  0  0  0  0  0  0  0  0  0  0
   20.7705   19.8234   21.0931 H   0  0  0  0  0  0  0  0  0  0  0  0
   22.2265   19.3045   20.5103 H   0  0  0  0  0  0  0  0  0  0  0  0
   21.3843   17.9845   21.9439 C   0  0  0  0  0  0  0  0  0  0  0  0
   21.9445   18.4314   22.7695 H   0  0  0  0  0  0  0  0  0  0  0  0
   21.9557   17.1310   21.5691 H   0  0  0  0  0  0  0  0  0  0  0  0
   20.0133   17.4899   22.4482 C   0  0  0  0  0  0  0  0  0  0  0  0
   19.3493   17.3004   21.5944 H   0  0  0  0  0  0  0  0  0  0  0  0
   20.1668   16.5145   22.9287 H   0  0  0  0  0  0  0  0  0  0  0  0
   19.3123   18.4185   23.4758 C   0  0  0  0  0  0  0  0  0  0  0  0
   19.9219   18.4966   24.3868 H   0  0  0  0  0  0  0  0  0  0  0  0
   18.3830   17.9214   23.7869 H   0  0  0  0  0  0  0  0  0  0  0  0
   18.9488   19.8329   22.9563 C   0  0  0  0  0  0  0  0  0  0  0  0
   18.7641   19.8091   21.8739 H   0  0  0  0  0  0  0  0  0  0  0  0
   17.9962   20.1387   23.4116 H   0  0  0  0  0  0  0  0  0  0  0  0
   20.0080   20.9025   23.3138 C   0  0  0  0  0  0  0  0  0  0  0  0
   19.7384   21.8742   22.8800 H   0  0  0  0  0  0  0  0  0  0  0  0
   20.0723   21.0333   24.4020 H   0  0  0  0  0  0  0  0  0  0  0  0
   21.0088   20.6379   22.9559 H   0  0  0  0  0  0  0  0  0  0  0  0
  1  2  1  0  0  0  0
  1  3  1  0  0  0  0
  1  4  1  0  0  0  0
  1  5  1  0  0  0  0
  5  6  1  0  0  0  0
  5  7  1  0  0  0  0
  5  8  1  0  0  0  0
  8  9  1  0  0  0  0
  8 10  1  0  0  0  0
  8 11  1  0  0  0  0
 11 12  1  0  0  0  0
 11 13  1  0  0  0  0
 11 14  1  0  0  0  0
 14 15  1  0  0  0  0
 14 16  1  0  0  0  0
 14 17  1  0  0  0  0
 17 18  1  0  0  0  0
 17 19  1  0  0  0  0
 17 20  1  0  0  0  0
M  END
> <VConfSearch Rank>
464

> <Conf_Id>
67

> <Delta U+W>
5.353

> <U+W>
-6.425

> <U>
51.541

> <W>
-57.966

> <W(PB)>
-59.821

> <W(SA)>
1.855

> <Valence>
5.347

> <Coulomb>
45.870

> <VdW>
0.325

> <VdW6>
-6.161

> <VdW12>
6.486

> <Bond>
0.201

> <Angle>
1.485

> <Pdih>
3.662

> <Idih>
0.000

> <Tether>
0.000

$$$$
VeraChem MOL file


 20 19  0  0  0  0  0  0  0  0999 V2000     
   17.1795   17.9792   22.9020 N   0  3  0  0  0  0  0  0  0  0  0  0
   17.2472   17.7874   23.9065 H   0  0  0  0  0  0  0  0  0  0  0  0
   16.2183   18.2883   22.7227 H   0  0  0  0  0  0  0  0  0  0  0  0
   17.2994   17.0849   22.4159 H   0  0  0  0  0  0  0  0  0  0  0  0
   18.1956   19.0095   22.4521 C   0  0  0  0  0  0  0  0  0  0  0  0
   17.9904   19.9414   22.9858 H   0  0  0  0  0  0  0  0  0  0  0  0
   18.0466   19.1861   21.3834 H   0  0  0  0  0  0  0  0  0  0  0  0
   19.6503   18.5761   22.7074 C   0  0  0  0  0  0  0  0  0  0  0  0
   19.7912   18.3844   23.7796 H   0  0  0  0  0  0  0  0  0  0  0  0
   19.8472   17.6317   22.1826 H   0  0  0  0  0  0  0  0  0  0  0  0
   20.6528   19.6526   22.2352 C   0  0  0  0  0  0  0  0  0  0  0  0
   20.4496   20.5975   22.7584 H   0  0  0  0  0  0  0  0  0  0  0  0
   20.5056   19.8456   21.1634 H   0  0  0  0  0  0  0  0  0  0  0  0
   22.1171   19.2282   22.4868 C   0  0  0  0  0  0  0  0  0  0  0  0
   22.2692   19.0361   23.5582 H   0  0  0  0  0  0  0  0  0  0  0  0
   22.3253   18.2845   21.9633 H   0  0  0  0  0  0  0  0  0  0  0  0
   23.1150   20.3068   22.0136 C   0  0  0  0  0  0  0  0  0  0  0  0
   22.9541   21.2540   22.5446 H   0  0  0  0  0  0  0  0  0  0  0  0
   24.1485   19.9875   22.2005 H   0  0  0  0  0  0  0  0  0  0  0  0
   23.0108   20.4964   20.9373 H   0  0  0  0  0  0  0  0  0  0  0  0
  1  2  1  0  0  0  0
  1  3  1  0  0  0  0
  1  4  1  0  0  0  0
  1  5  1  0  0  0  0
  5  6  1  0  0  0  0
  5  7  1  0  0  0  0
  5  8  1  0  0  0  0
  8  9  1  0  0  0  0
  8 10  1  0  0  0  0
  8 11  1  0  0  0  0
 11 12  1  0  0  0  0
 11 13  1  0  0  0  0
 11 14  1  0  0  0  0
 14 15  1  0  0  0  0
 14 16  1  0  0  0  0
 14 17  1  0  0  0  0
 17 18  1  0  0  0  0
 17 19  1  0  0  0  0
 17 20  1  0  0  0  0
M  END
> <VConfSearch Rank>
465

> <Conf_Id>
72

> <Delta U+W>
0.000

> <U+W>
-11.778

> <U>
45.772

> <W>
-57.550

> <W(PB)>
-59.511

> <W(SA)>
1.961

> <Valence>
1.299

> <Coulomb>
44.177

> <VdW>
0.297

> <VdW6>
-3.490

> <VdW12>
3.786

> <Bond>
0.096

> <Angle>
0.381

> <Pdih>
0.822

> <Idih>
0.000

> <Tether>
0.000

$$$$
VeraChem MOL file


 20 19  0  0  0  0  0  0  0  0999 V2000     
   22.4131   21.0837   22.2569 N   0  3  0  0  0  0  0  0  0  0  0  0
   22.7753   20.5850   21.4380 H   0  0  0  0  0  0  0  0  0  0  0  0
   21.8891   21.8930   21.9094 H   0  0  0  0  0  0  0  0  0  0  0  0
   23.2251   21.4509   22.7642 H   0  0  0  0  0  0  0  0  0  0  0  0
   21.5591   20.1895   23.1330 C   0  0  0  0  0  0  0  0  0  0  0  0
   21.2345   20.7750   23.9975 H   0  0  0  0  0  0  0  0  0  0  0  0
   22.1864   19.3685   23.4906 H   0  0  0  0  0  0  0  0  0  0  0  0
   20.3299   19.6210   22.4016 C   0  0  0  0  0  0  0  0  0  0  0  0
   19.7111   20.4488   22.0305 H   0  0  0  0  0  0  0  0  0  0  0  0
   20.6664   19.0508   21.5266 H   0  0  0  0  0  0  0  0  0  0  0  0
   19.4873   18.7178   23.3329 C   0  0  0  0  0  0  0  0  0  0  0  0
   19.2247   19.2832   24.2379 H   0  0  0  0  0  0  0  0  0  0  0  0
   20.0928   17.8640   23.6675 H   0  0  0  0  0  0  0  0  0  0  0  0
   18.1824   18.2021   22.6786 C   0  0  0  0  0  0  0  0  0  0  0  0
   17.5982   17.6608   23.4360 H   0  0  0  0  0  0  0  0  0  0  0  0
   17.5626   19.0534   22.3639 H   0  0  0  0  0  0  0  0  0  0  0  0
   18.4273   17.2642   21.4745 C   0  0  0  0  0  0  0  0  0  0  0  0
   19.0684   16.4188   21.7561 H   0  0  0  0  0  0  0  0  0  0  0  0
   17.4772   16.8561   21.1062 H   0  0  0  0  0  0  0  0  0  0  0  0
   18.9031   17.7942   20.6402 H   0  0  0  0  0  0  0  0  0  0  0  0
  1  2  1  0  0  0  0
  1  3  1  0  0  0  0
  1  4  1  0  0  0  0
  1  5  1  0  0  0  0
  5  6  1  0  0  0  0
  5  7  1  0  0  0  0
  5  8  1  0  0  0  0
  8  9  1  0  0  0  0
  8 10  1  0  0  0  0
  8 11  1  0  0  0  0
 11 12  1  0  0  0  0
 11 13  1  0  0  0  0
 11 14  1  0  0  0  0
 14 15  1  0  0  0  0
 14 16  1  0  0  0  0
 14 17  1  0  0  0  0
 17 18  1  0  0  0  0
 17 19  1  0  0  0  0
 17 20  1  0  0  0  0
M  END
> <VConfSearch Rank>
466

> <Conf_Id>
42

> <Delta U+W>
0.508

> <U+W>
-11.270

> <U>
46.486

> <W>
-57.756

> <W(PB)>
-59.705

> <W(SA)>
1.949

> <Valence>
1.806

> <Coulomb>
44.248

> <VdW>
0.433

> <VdW6>
-4.089

> <VdW12>
4.522

> <Bond>
0.131

> <Angle>
0.628

> <Pdih>
1.047

> <Idih>
0.000

> <Tether>
0.000

$$$$
VeraChem MOL file


 20 19  0  0  0  0  0  0  0  0999 V2000     
   20.2059   21.3473   20.5389 N   0  3  0  0  0  0  0  0  0  0  0  0
   19.7072   22.0288   21.1196 H   0  0  0  0  0  0  0  0  0  0  0  0
   21.2079   21.4922   20.6975 H   0  0  0  0  0  0  0  0  0  0  0  0
   20.0205   21.5975   19.5618 H   0  0  0  0  0  0  0  0  0  0  0  0
   19.7833   19.9247   20.8456 C   0  0  0  0  0  0  0  0  0  0  0  0
   20.3294   19.2578   20.1729 H   0  0  0  0  0  0  0  0  0  0  0  0
   18.7160   19.8350   20.6260 H   0  0  0  0  0  0  0  0  0  0  0  0
   20.0475   19.5164   22.3060 C   0  0  0  0  0  0  0  0  0  0  0  0
   21.1180   19.6272   22.5203 H   0  0  0  0  0  0  0  0  0  0  0  0
   19.5101   20.1983   22.9784 H   0  0  0  0  0  0  0  0  0  0  0  0
   19.5996   18.0602   22.5743 C   0  0  0  0  0  0  0  0  0  0  0  0
   20.1705   17.3734   21.9341 H   0  0  0  0  0  0  0  0  0  0  0  0
   18.5460   17.9504   22.2819 H   0  0  0  0  0  0  0  0  0  0  0  0
   19.7472   17.6311   24.0545 C   0  0  0  0  0  0  0  0  0  0  0  0
   19.1583   18.3011   24.6964 H   0  0  0  0  0  0  0  0  0  0  0  0
   19.3122   16.6291   24.1762 H   0  0  0  0  0  0  0  0  0  0  0  0
   21.2136   17.5999   24.5424 C   0  0  0  0  0  0  0  0  0  0  0  0
   21.6567   18.6034   24.5539 H   0  0  0  0  0  0  0  0  0  0  0  0
   21.2700   17.2035   25.5645 H   0  0  0  0  0  0  0  0  0  0  0  0
   21.8304   16.9584   23.8997 H   0  0  0  0  0  0  0  0  0  0  0  0
  1  2  1  0  0  0  0
  1  3  1  0  0  0  0
  1  4  1  0  0  0  0
  1  5  1  0  0  0  0
  5  6  1  0  0  0  0
  5  7  1  0  0  0  0
  5  8  1  0  0  0  0
  8  9  1  0  0  0  0
  8 10  1  0  0  0  0
  8 11  1  0  0  0  0
 11 12  1  0  0  0  0
 11 13  1  0  0  0  0
 11 14  1  0  0  0  0
 14 15  1  0  0  0  0
 14 16  1  0  0  0  0
 14 17  1  0  0  0  0
 17 18  1  0  0  0  0
 17 19  1  0  0  0  0
 17 20  1  0  0  0  0
M  END
> <VConfSearch Rank>
467

> <Conf_Id>
41

> <Delta U+W>
0.515

> <U+W>
-11.263

> <U>
46.486

> <W>
-57.749

> <W(PB)>
-59.685

> <W(SA)>
1.936

> <Valence>
1.806

> <Coulomb>
44.248

> <VdW>
0.433

> <VdW6>
-4.089

> <VdW12>
4.522

> <Bond>
0.131

> <Angle>
0.628

> <Pdih>
1.047

> <Idih>
0.000

> <Tether>
0.000

$$$$
VeraChem MOL file


 20 19  0  0  0  0  0  0  0  0999 V2000     
   20.0220   17.7178   20.0862 N   0  3  0  0  0  0  0  0  0  0  0  0
   20.3400   16.9668   19.4647 H   0  0  0  0  0  0  0  0  0  0  0  0
   19.2157   17.3552   20.6034 H   0  0  0  0  0  0  0  0  0  0  0  0
   19.6813   18.4760   19.4869 H   0  0  0  0  0  0  0  0  0  0  0  0
   21.1261   18.1847   21.0153 C   0  0  0  0  0  0  0  0  0  0  0  0
   21.9635   18.5139   20.3940 H   0  0  0  0  0  0  0  0  0  0  0  0
   21.4584   17.3271   21.6065 H   0  0  0  0  0  0  0  0  0  0  0  0
   20.7078   19.3321   21.9556 C   0  0  0  0  0  0  0  0  0  0  0  0
   21.6014   19.6707   22.4946 H   0  0  0  0  0  0  0  0  0  0  0  0
   20.3582   20.1854   21.3595 H   0  0  0  0  0  0  0  0  0  0  0  0
   19.6147   18.9075   22.9686 C   0  0  0  0  0  0  0  0  0  0  0  0
   19.9801   18.0684   23.5767 H   0  0  0  0  0  0  0  0  0  0  0  0
   18.7368   18.5353   22.4243 H   0  0  0  0  0  0  0  0  0  0  0  0
   19.1552   20.0575   23.8978 C   0  0  0  0  0  0  0  0  0  0  0  0
   18.7760   20.8942   23.2945 H   0  0  0  0  0  0  0  0  0  0  0  0
   18.3066   19.7050   24.5008 H   0  0  0  0  0  0  0  0  0  0  0  0
   20.2642   20.5626   24.8489 C   0  0  0  0  0  0  0  0  0  0  0  0
   21.0834   21.0400   24.2972 H   0  0  0  0  0  0  0  0  0  0  0  0
   19.8609   21.3069   25.5477 H   0  0  0  0  0  0  0  0  0  0  0  0
   20.6822   19.7386   25.4416 H   0  0  0  0  0  0  0  0  0  0  0  0
  1  2  1  0  0  0  0
  1  3  1  0  0  0  0
  1  4  1  0  0  0  0
  1  5  1  0  0  0  0
  5  6  1  0  0  0  0
  5  7  1  0  0  0  0
  5  8  1  0  0  0  0
  8  9  1  0  0  0  0
  8 10  1  0  0  0  0
  8 11  1  0  0  0  0
 11 12  1  0  0  0  0
 11 13  1  0  0  0  0
 11 14  1  0  0  0  0
 14 15  1  0  0  0  0
 14 16  1  0  0  0  0
 14 17  1  0  0  0  0
 17 18  1  0  0  0  0
 17 19  1  0  0  0  0
 17 20  1  0  0  0  0
M  END
> <VConfSearch Rank>
468

> <Conf_Id>
33

> <Delta U+W>
0.703

> <U+W>
-11.075

> <U>
47.080

> <W>
-58.154

> <W(PB)>
-60.053

> <W(SA)>
1.899

> <Valence>
1.943

> <Coulomb>
44.572

> <VdW>
0.565

> <VdW6>
-4.575

> <VdW12>
5.139

> <Bond>
0.158

> <Angle>
0.700

> <Pdih>
1.085

> <Idih>
0.000

> <Tether>
0.000

$$$$
VeraChem MOL file


 20 19  0  0  0  0  0  0  0  0999 V2000     
   18.9891   21.5407   21.7732 N   0  3  0  0  0  0  0  0  0  0  0  0
   18.2313   22.2286   21.8359 H   0  0  0  0  0  0  0  0  0  0  0  0
   19.8492   22.0623   21.5776 H   0  0  0  0  0  0  0  0  0  0  0  0
   18.7955   20.9579   20.9535 H   0  0  0  0  0  0  0  0  0  0  0  0
   19.1052   20.7144   23.0396 C   0  0  0  0  0  0  0  0  0  0  0  0
   18.1516   20.2047   23.2017 H   0  0  0  0  0  0  0  0  0  0  0  0
   19.2667   21.4055   23.8714 H   0  0  0  0  0  0  0  0  0  0  0  0
   20.2474   19.6799   23.0082 C   0  0  0  0  0  0  0  0  0  0  0  0
   21.2015   20.1928   22.8279 H   0  0  0  0  0  0  0  0  0  0  0  0
   20.3190   19.2245   24.0037 H   0  0  0  0  0  0  0  0  0  0  0  0
   20.0269   18.5769   21.9423 C   0  0  0  0  0  0  0  0  0  0  0  0
   19.9196   19.0409   20.9530 H   0  0  0  0  0  0  0  0  0  0  0  0
   19.0817   18.0533   22.1423 H   0  0  0  0  0  0  0  0  0  0  0  0
   21.1822   17.5488   21.8709 C   0  0  0  0  0  0  0  0  0  0  0  0
   21.0024   16.8758   21.0208 H   0  0  0  0  0  0  0  0  0  0  0  0
   22.1280   18.0663   21.6574 H   0  0  0  0  0  0  0  0  0  0  0  0
   21.3320   16.6992   23.1536 C   0  0  0  0  0  0  0  0  0  0  0  0
   20.3899   16.1958   23.4066 H   0  0  0  0  0  0  0  0  0  0  0  0
   22.0982   15.9256   23.0143 H   0  0  0  0  0  0  0  0  0  0  0  0
   21.6361   17.3120   24.0111 H   0  0  0  0  0  0  0  0  0  0  0  0
  1  2  1  0  0  0  0
  1  3  1  0  0  0  0
  1  4  1  0  0  0  0
  1  5  1  0  0  0  0
  5  6  1  0  0  0  0
  5  7  1  0  0  0  0
  5  8  1  0  0  0  0
  8  9  1  0  0  0  0
  8 10  1  0  0  0  0
  8 11  1  0  0  0  0
 11 12  1  0  0  0  0
 11 13  1  0  0  0  0
 11 14  1  0  0  0  0
 14 15  1  0  0  0  0
 14 16  1  0  0  0  0
 14 17  1  0  0  0  0
 17 18  1  0  0  0  0
 17 19  1  0  0  0  0
 17 20  1  0  0  0  0
M  END
> <VConfSearch Rank>
469

> <Conf_Id>
24

> <Delta U+W>
0.847

> <U+W>
-10.931

> <U>
47.080

> <W>
-58.011

> <W(PB)>
-59.914

> <W(SA)>
1.903

> <Valence>
1.943

> <Coulomb>
44.572

> <VdW>
0.565

> <VdW6>
-4.575

> <VdW12>
5.140

> <Bond>
0.158

> <Angle>
0.700

> <Pdih>
1.085

> <Idih>
0.000

> <Tether>
0.000

$$$$
VeraChem MOL file


 20 19  0  0  0  0  0  0  0  0999 V2000     
   20.0086   16.5690   23.2378 N   0  3  0  0  0  0  0  0  0  0  0  0
   19.1908   15.9519   23.1957 H   0  0  0  0  0  0  0  0  0  0  0  0
   20.6279   16.2948   22.4687 H   0  0  0  0  0  0  0  0  0  0  0  0
   20.4990   16.3529   24.1113 H   0  0  0  0  0  0  0  0  0  0  0  0
   19.6161   18.0304   23.1555 C   0  0  0  0  0  0  0  0  0  0  0  0
   18.9361   18.2450   23.9843 H   0  0  0  0  0  0  0  0  0  0  0  0
   19.0740   18.1802   22.2181 H   0  0  0  0  0  0  0  0  0  0  0  0
   20.8231   18.9855   23.2153 C   0  0  0  0  0  0  0  0  0  0  0  0
   21.3838   18.7979   24.1406 H   0  0  0  0  0  0  0  0  0  0  0  0
   21.5109   18.7649   22.3891 H   0  0  0  0  0  0  0  0  0  0  0  0
   20.4091   20.4779   23.1761 C   0  0  0  0  0  0  0  0  0  0  0  0
   21.3129   21.0999   23.2341 H   0  0  0  0  0  0  0  0  0  0  0  0
   19.8248   20.7096   24.0775 H   0  0  0  0  0  0  0  0  0  0  0  0
   19.5874   20.8928   21.9288 C   0  0  0  0  0  0  0  0  0  0  0  0
   18.6287   20.3567   21.9101 H   0  0  0  0  0  0  0  0  0  0  0  0
   19.3343   21.9589   22.0150 H   0  0  0  0  0  0  0  0  0  0  0  0
   20.3362   20.6653   20.5960 C   0  0  0  0  0  0  0  0  0  0  0  0
   19.7520   21.0597   19.7546 H   0  0  0  0  0  0  0  0  0  0  0  0
   21.3085   21.1748   20.5973 H   0  0  0  0  0  0  0  0  0  0  0  0
   20.5071   19.5982   20.4070 H   0  0  0  0  0  0  0  0  0  0  0  0
  1  2  1  0  0  0  0
  1  3  1  0  0  0  0
  1  4  1  0  0  0  0
  1  5  1  0  0  0  0
  5  6  1  0  0  0  0
  5  7  1  0  0  0  0
  5  8  1  0  0  0  0
  8  9  1  0  0  0  0
  8 10  1  0  0  0  0
  8 11  1  0  0  0  0
 11 12  1  0  0  0  0
 11 13  1  0  0  0  0
 11 14  1  0  0  0  0
 14 15  1  0  0  0  0
 14 16  1  0  0  0  0
 14 17  1  0  0  0  0
 17 18  1  0  0  0  0
 17 19  1  0  0  0  0
 17 20  1  0  0  0  0
M  END
> <VConfSearch Rank>
470

> <Conf_Id>
64

> <Delta U+W>
0.707

> <U+W>
-11.070

> <U>
47.077

> <W>
-58.148

> <W(PB)>
-60.054

> <W(SA)>
1.906

> <Valence>
2.039

> <Coulomb>
44.655

> <VdW>
0.383

> <VdW6>
-4.912

> <VdW12>
5.295

> <Bond>
0.159

> <Angle>
0.856

> <Pdih>
1.024

> <Idih>
0.000

> <Tether>
0.000

$$$$
VeraChem MOL file


 20 19  0  0  0  0  0  0  0  0999 V2000     
   20.8314   17.0008   24.1907 N   0  3  0  0  0  0  0  0  0  0  0  0
   20.2476   16.1660   24.0779 H   0  0  0  0  0  0  0  0  0  0  0  0
   21.7094   16.8239   23.6927 H   0  0  0  0  0  0  0  0  0  0  0  0
   21.0630   17.0689   25.1873 H   0  0  0  0  0  0  0  0  0  0  0  0
   20.1364   18.2498   23.6874 C   0  0  0  0  0  0  0  0  0  0  0  0
   20.8009   19.0991   23.8665 H   0  0  0  0  0  0  0  0  0  0  0  0
   19.2281   18.3930   24.2790 H   0  0  0  0  0  0  0  0  0  0  0  0
   19.7747   18.1802   22.1918 C   0  0  0  0  0  0  0  0  0  0  0  0
   20.6847   18.0274   21.5977 H   0  0  0  0  0  0  0  0  0  0  0  0
   19.1414   17.3005   22.0162 H   0  0  0  0  0  0  0  0  0  0  0  0
   19.0247   19.4423   21.6970 C   0  0  0  0  0  0  0  0  0  0  0  0
   18.0579   19.5085   22.2151 H   0  0  0  0  0  0  0  0  0  0  0  0
   18.7881   19.3210   20.6309 H   0  0  0  0  0  0  0  0  0  0  0  0
   19.7904   20.7751   21.8979 C   0  0  0  0  0  0  0  0  0  0  0  0
   19.1617   21.5988   21.5316 H   0  0  0  0  0  0  0  0  0  0  0  0
   19.9438   20.9671   22.9686 H   0  0  0  0  0  0  0  0  0  0  0  0
   21.1487   20.8205   21.1619 C   0  0  0  0  0  0  0  0  0  0  0  0
   21.0251   20.6108   20.0915 H   0  0  0  0  0  0  0  0  0  0  0  0
   21.6054   21.8139   21.2586 H   0  0  0  0  0  0  0  0  0  0  0  0
   21.8558   20.0910   21.5761 H   0  0  0  0  0  0  0  0  0  0  0  0
  1  2  1  0  0  0  0
  1  3  1  0  0  0  0
  1  4  1  0  0  0  0
  1  5  1  0  0  0  0
  5  6  1  0  0  0  0
  5  7  1  0  0  0  0
  5  8  1  0  0  0  0
  8  9  1  0  0  0  0
  8 10  1  0  0  0  0
  8 11  1  0  0  0  0
 11 12  1  0  0  0  0
 11 13  1  0  0  0  0
 11 14  1  0  0  0  0
 14 15  1  0  0  0  0
 14 16  1  0  0  0  0
 14 17  1  0  0  0  0
 17 18  1  0  0  0  0
 17 19  1  0  0  0  0
 17 20  1  0  0  0  0
M  END
> <VConfSearch Rank>
471

> <Conf_Id>
22

> <Delta U+W>
0.731

> <U+W>
-11.047

> <U>
47.078

> <W>
-58.125

> <W(PB)>
-60.031

> <W(SA)>
1.906

> <Valence>
2.039

> <Coulomb>
44.655

> <VdW>
0.383

> <VdW6>
-4.913

> <VdW12>
5.296

> <Bond>
0.159

> <Angle>
0.856

> <Pdih>
1.024

> <Idih>
0.000

> <Tether>
0.000

$$$$
VeraChem MOL file


 20 19  0  0  0  0  0  0  0  0999 V2000     
   20.0155   16.5392   21.8425 N   0  3  0  0  0  0  0  0  0  0  0  0
   19.0937   16.2838   22.2106 H   0  0  0  0  0  0  0  0  0  0  0  0
   19.9910   16.3774   20.8308 H   0  0  0  0  0  0  0  0  0  0  0  0
   20.6876   15.8710   22.2340 H   0  0  0  0  0  0  0  0  0  0  0  0
   20.3829   17.9705   22.1786 C   0  0  0  0  0  0  0  0  0  0  0  0
   21.3831   18.1651   21.7820 H   0  0  0  0  0  0  0  0  0  0  0  0
   20.4174   18.0571   23.2670 H   0  0  0  0  0  0  0  0  0  0  0  0
   19.3894   18.9989   21.6093 C   0  0  0  0  0  0  0  0  0  0  0  0
   19.2752   18.8204   20.5318 H   0  0  0  0  0  0  0  0  0  0  0  0
   18.3997   18.8374   22.0568 H   0  0  0  0  0  0  0  0  0  0  0  0
   19.8211   20.4724   21.8193 C   0  0  0  0  0  0  0  0  0  0  0  0
   19.0915   21.1073   21.2976 H   0  0  0  0  0  0  0  0  0  0  0  0
   20.7841   20.6593   21.3243 H   0  0  0  0  0  0  0  0  0  0  0  0
   19.8823   20.9305   23.2997 C   0  0  0  0  0  0  0  0  0  0  0  0
   19.6871   22.0116   23.3343 H   0  0  0  0  0  0  0  0  0  0  0  0
   19.0752   20.4598   23.8782 H   0  0  0  0  0  0  0  0  0  0  0  0
   21.2485   20.6753   23.9790 C   0  0  0  0  0  0  0  0  0  0  0  0
   21.4763   19.6079   24.0666 H   0  0  0  0  0  0  0  0  0  0  0  0
   22.0624   21.1526   23.4180 H   0  0  0  0  0  0  0  0  0  0  0  0
   21.2545   21.0950   24.9932 H   0  0  0  0  0  0  0  0  0  0  0  0
  1  2  1  0  0  0  0
  1  3  1  0  0  0  0
  1  4  1  0  0  0  0
  1  5  1  0  0  0  0
  5  6  1  0  0  0  0
  5  7  1  0  0  0  0
  5  8  1  0  0  0  0
  8  9  1  0  0  0  0
  8 10  1  0  0  0  0
  8 11  1  0  0  0  0
 11 12  1  0  0  0  0
 11 13  1  0  0  0  0
 11 14  1  0  0  0  0
 14 15  1  0  0  0  0
 14 16  1  0  0  0  0
 14 17  1  0  0  0  0
 17 18  1  0  0  0  0
 17 19  1  0  0  0  0
 17 20  1  0  0  0  0
M  END
> <VConfSearch Rank>
472

> <Conf_Id>
61

> <Delta U+W>
2.669

> <U+W>
-9.108

> <U>
48.916

> <W>
-58.025

> <W(PB)>
-59.935

> <W(SA)>
1.911

> <Valence>
3.785

> <Coulomb>
44.716

> <VdW>
0.415

> <VdW6>
-4.836

> <VdW12>
5.251

> <Bond>
0.175

> <Angle>
1.195

> <Pdih>
2.415

> <Idih>
0.000

> <Tether>
0.000

$$$$
VeraChem MOL file


 20 19  0  0  0  0  0  0  0  0999 V2000     
   20.6011   18.3068   20.3035 N   0  3  0  0  0  0  0  0  0  0  0  0
   20.3389   18.3769   19.3146 H   0  0  0  0  0  0  0  0  0  0  0  0
   21.3081   17.5679   20.3712 H   0  0  0  0  0  0  0  0  0  0  0  0
   19.7745   17.9814   20.8113 H   0  0  0  0  0  0  0  0  0  0  0  0
   21.1148   19.6279   20.8434 C   0  0  0  0  0  0  0  0  0  0  0  0
   20.3445   20.3891   20.6934 H   0  0  0  0  0  0  0  0  0  0  0  0
   21.9833   19.9024   20.2384 H   0  0  0  0  0  0  0  0  0  0  0  0
   21.5314   19.5895   22.3288 C   0  0  0  0  0  0  0  0  0  0  0  0
   22.0897   18.6678   22.5396 H   0  0  0  0  0  0  0  0  0  0  0  0
   22.2367   20.4138   22.4988 H   0  0  0  0  0  0  0  0  0  0  0  0
   20.3600   19.7532   23.3313 C   0  0  0  0  0  0  0  0  0  0  0  0
   19.8485   20.7075   23.1440 H   0  0  0  0  0  0  0  0  0  0  0  0
   20.7837   19.8275   24.3425 H   0  0  0  0  0  0  0  0  0  0  0  0
   19.3282   18.6013   23.3058 C   0  0  0  0  0  0  0  0  0  0  0  0
   18.7844   18.6045   22.3529 H   0  0  0  0  0  0  0  0  0  0  0  0
   19.8451   17.6346   23.3850 H   0  0  0  0  0  0  0  0  0  0  0  0
   18.3058   18.7285   24.4554 C   0  0  0  0  0  0  0  0  0  0  0  0
   17.5756   17.9097   24.4174 H   0  0  0  0  0  0  0  0  0  0  0  0
   18.8031   18.6898   25.4334 H   0  0  0  0  0  0  0  0  0  0  0  0
   17.7538   19.6751   24.3898 H   0  0  0  0  0  0  0  0  0  0  0  0
  1  2  1  0  0  0  0
  1  3  1  0  0  0  0
  1  4  1  0  0  0  0
  1  5  1  0  0  0  0
  5  6  1  0  0  0  0
  5  7  1  0  0  0  0
  5  8  1  0  0  0  0
  8  9  1  0  0  0  0
  8 10  1  0  0  0  0
  8 11  1  0  0  0  0
 11 12  1  0  0  0  0
 11 13  1  0  0  0  0
 11 14  1  0  0  0  0
 14 15  1  0  0  0  0
 14 16  1  0  0  0  0
 14 17  1  0  0  0  0
 17 18  1  0  0  0  0
 17 19  1  0  0  0  0
 17 20  1  0  0  0  0
M  END
> <VConfSearch Rank>
473

> <Conf_Id>
69

> <Delta U+W>
2.811

> <U+W>
-8.967

> <U>
49.216

> <W>
-58.183

> <W(PB)>
-60.064

> <W(SA)>
1.881

> <Valence>
2.929

> <Coulomb>
46.006

> <VdW>
0.281

> <VdW6>
-4.909

> <VdW12>
5.190

> <Bond>
0.156

> <Angle>
0.974

> <Pdih>
1.799

> <Idih>
0.000

> <Tether>
0.000

$$$$
VeraChem MOL file


 20 19  0  0  0  0  0  0  0  0999 V2000     
   20.5677   17.7039   24.1234 N   0  3  0  0  0  0  0  0  0  0  0  0
   20.3968   18.6957   24.3084 H   0  0  0  0  0  0  0  0  0  0  0  0
   19.7097   17.1987   24.3661 H   0  0  0  0  0  0  0  0  0  0  0  0
   21.2904   17.3948   24.7820 H   0  0  0  0  0  0  0  0  0  0  0  0
   20.9774   17.4579   22.6838 C   0  0  0  0  0  0  0  0  0  0  0  0
   21.1500   16.3831   22.5817 H   0  0  0  0  0  0  0  0  0  0  0  0
   21.9247   17.9713   22.4983 H   0  0  0  0  0  0  0  0  0  0  0  0
   19.9295   17.8982   21.6400 C   0  0  0  0  0  0  0  0  0  0  0  0
   20.1180   17.3313   20.7186 H   0  0  0  0  0  0  0  0  0  0  0  0
   18.9235   17.6081   21.9708 H   0  0  0  0  0  0  0  0  0  0  0  0
   19.9677   19.4069   21.2848 C   0  0  0  0  0  0  0  0  0  0  0  0
   19.2662   19.5808   20.4570 H   0  0  0  0  0  0  0  0  0  0  0  0
   20.9636   19.6675   20.9006 H   0  0  0  0  0  0  0  0  0  0  0  0
   19.6029   20.3507   22.4546 C   0  0  0  0  0  0  0  0  0  0  0  0
   18.6575   20.0291   22.9136 H   0  0  0  0  0  0  0  0  0  0  0  0
   20.3765   20.3033   23.2313 H   0  0  0  0  0  0  0  0  0  0  0  0
   19.4690   21.8146   21.9834 C   0  0  0  0  0  0  0  0  0  0  0  0
   18.6758   21.9172   21.2313 H   0  0  0  0  0  0  0  0  0  0  0  0
   19.2197   22.4721   22.8263 H   0  0  0  0  0  0  0  0  0  0  0  0
   20.4074   22.1745   21.5416 H   0  0  0  0  0  0  0  0  0  0  0  0
  1  2  1  0  0  0  0
  1  3  1  0  0  0  0
  1  4  1  0  0  0  0
  1  5  1  0  0  0  0
  5  6  1  0  0  0  0
  5  7  1  0  0  0  0
  5  8  1  0  0  0  0
  8  9  1  0  0  0  0
  8 10  1  0  0  0  0
  8 11  1  0  0  0  0
 11 12  1  0  0  0  0
 11 13  1  0  0  0  0
 11 14  1  0  0  0  0
 14 15  1  0  0  0  0
 14 16  1  0  0  0  0
 14 17  1  0  0  0  0
 17 18  1  0  0  0  0
 17 19  1  0  0  0  0
 17 20  1  0  0  0  0
M  END
> <VConfSearch Rank>
474

> <Conf_Id>
26

> <Delta U+W>
2.809

> <U+W>
-8.969

> <U>
49.216

> <W>
-58.185

> <W(PB)>
-60.088

> <W(SA)>
1.903

> <Valence>
2.929

> <Coulomb>
46.006

> <VdW>
0.281

> <VdW6>
-4.909

> <VdW12>
5.190

> <Bond>
0.156

> <Angle>
0.974

> <Pdih>
1.799

> <Idih>
0.000

> <Tether>
0.000

$$$$
VeraChem MOL file


 20 19  0  0  0  0  0  0  0  0999 V2000     
   20.9410   18.3348   20.3432 N   0  3  0  0  0  0  0  0  0  0  0  0
   20.4808   17.5539   20.8200 H   0  0  0  0  0  0  0  0  0  0  0  0
   20.3849   18.5510   19.5101 H   0  0  0  0  0  0  0  0  0  0  0  0
   21.8501   17.9930   20.0148 H   0  0  0  0  0  0  0  0  0  0  0  0
   21.0865   19.5397   21.2522 C   0  0  0  0  0  0  0  0  0  0  0  0
   21.6101   20.3186   20.6913 H   0  0  0  0  0  0  0  0  0  0  0  0
   21.7141   19.2523   22.0998 H   0  0  0  0  0  0  0  0  0  0  0  0
   19.7422   20.0947   21.7654 C   0  0  0  0  0  0  0  0  0  0  0  0
   19.9345   21.0044   22.3484 H   0  0  0  0  0  0  0  0  0  0  0  0
   19.1337   20.4116   20.9081 H   0  0  0  0  0  0  0  0  0  0  0  0
   18.9308   19.0883   22.6231 C   0  0  0  0  0  0  0  0  0  0  0  0
   18.6008   18.2540   21.9896 H   0  0  0  0  0  0  0  0  0  0  0  0
   18.0112   19.5798   22.9692 H   0  0  0  0  0  0  0  0  0  0  0  0
   19.6900   18.5182   23.8486 C   0  0  0  0  0  0  0  0  0  0  0  0
   19.0336   17.8054   24.3672 H   0  0  0  0  0  0  0  0  0  0  0  0
   20.5634   17.9391   23.5194 H   0  0  0  0  0  0  0  0  0  0  0  0
   20.1364   19.6049   24.8529 C   0  0  0  0  0  0  0  0  0  0  0  0
   19.2829   20.2097   25.1855 H   0  0  0  0  0  0  0  0  0  0  0  0
   20.5882   19.1450   25.7414 H   0  0  0  0  0  0  0  0  0  0  0  0
   20.8838   20.2770   24.4133 H   0  0  0  0  0  0  0  0  0  0  0  0
  1  2  1  0  0  0  0
  1  3  1  0  0  0  0
  1  4  1  0  0  0  0
  1  5  1  0  0  0  0
  5  6  1  0  0  0  0
  5  7  1  0  0  0  0
  5  8  1  0  0  0  0
  8  9  1  0  0  0  0
  8 10  1  0  0  0  0
  8 11  1  0  0  0  0
 11 12  1  0  0  0  0
 11 13  1  0  0  0  0
 11 14  1  0  0  0  0
 14 15  1  0  0  0  0
 14 16  1  0  0  0  0
 14 17  1  0  0  0  0
 17 18  1  0  0  0  0
 17 19  1  0  0  0  0
 17 20  1  0  0  0  0
M  END
> <VConfSearch Rank>
475

> <Conf_Id>
2

> <Delta U+W>
0.994

> <U+W>
-10.784

> <U>
47.562

> <W>
-58.346

> <W(PB)>
-60.221

> <W(SA)>
1.875

> <Valence>
2.149

> <Coulomb>
45.034

> <VdW>
0.378

> <VdW6>
-5.599

> <VdW12>
5.977

> <Bond>
0.185

> <Angle>
0.935

> <Pdih>
1.028

> <Idih>
0.000

> <Tether>
0.000

$$$$
VeraChem MOL file


 20 19  0  0  0  0  0  0  0  0999 V2000     
   21.2283   17.0320   23.1950 N   0  3  0  0  0  0  0  0  0  0  0  0
   22.1079   17.1171   23.7138 H   0  0  0  0  0  0  0  0  0  0  0  0
   20.4687   17.2309   23.8526 H   0  0  0  0  0  0  0  0  0  0  0  0
   21.1380   16.0484   22.9199 H   0  0  0  0  0  0  0  0  0  0  0  0
   21.1891   17.9589   21.9957 C   0  0  0  0  0  0  0  0  0  0  0  0
   20.2445   17.7955   21.4705 H   0  0  0  0  0  0  0  0  0  0  0  0
   22.0037   17.6709   21.3256 H   0  0  0  0  0  0  0  0  0  0  0  0
   21.3297   19.4506   22.3606 C   0  0  0  0  0  0  0  0  0  0  0  0
   22.2962   19.6095   22.8570 H   0  0  0  0  0  0  0  0  0  0  0  0
   21.3684   20.0391   21.4350 H   0  0  0  0  0  0  0  0  0  0  0  0
   20.1939   19.9867   23.2714 C   0  0  0  0  0  0  0  0  0  0  0  0
   20.3595   21.0582   23.4492 H   0  0  0  0  0  0  0  0  0  0  0  0
   20.2625   19.5083   24.2576 H   0  0  0  0  0  0  0  0  0  0  0  0
   18.7621   19.7833   22.7132 C   0  0  0  0  0  0  0  0  0  0  0  0
   18.5394   18.7119   22.6182 H   0  0  0  0  0  0  0  0  0  0  0  0
   18.0417   20.1774   23.4437 H   0  0  0  0  0  0  0  0  0  0  0  0
   18.5280   20.4843   21.3557 C   0  0  0  0  0  0  0  0  0  0  0  0
   19.1469   20.0449   20.5636 H   0  0  0  0  0  0  0  0  0  0  0  0
   17.4790   20.3858   21.0479 H   0  0  0  0  0  0  0  0  0  0  0  0
   18.7598   21.5554   21.4194 H   0  0  0  0  0  0  0  0  0  0  0  0
  1  2  1  0  0  0  0
  1  3  1  0  0  0  0
  1  4  1  0  0  0  0
  1  5  1  0  0  0  0
  5  6  1  0  0  0  0
  5  7  1  0  0  0  0
  5  8  1  0  0  0  0
  8  9  1  0  0  0  0
  8 10  1  0  0  0  0
  8 11  1  0  0  0  0
 11 12  1  0  0  0  0
 11 13  1  0  0  0  0
 11 14  1  0  0  0  0
 14 15  1  0  0  0  0
 14 16  1  0  0  0  0
 14 17  1  0  0  0  0
 17 18  1  0  0  0  0
 17 19  1  0  0  0  0
 17 20  1  0  0  0  0
M  END
> <VConfSearch Rank>
476

> <Conf_Id>
1

> <Delta U+W>
1.032

> <U+W>
-10.746

> <U>
47.562

> <W>
-58.308

> <W(PB)>
-60.184

> <W(SA)>
1.877

> <Valence>
2.149

> <Coulomb>
45.035

> <VdW>
0.378

> <VdW6>
-5.599

> <VdW12>
5.978

> <Bond>
0.185

> <Angle>
0.935

> <Pdih>
1.028

> <Idih>
0.000

> <Tether>
0.000

$$$$
VeraChem MOL file


 20 19  0  0  0  0  0  0  0  0999 V2000     
   18.1985   20.2214   22.2043 N   0  3  0  0  0  0  0  0  0  0  0  0
   17.9068   20.4855   21.2582 H   0  0  0  0  0  0  0  0  0  0  0  0
   18.0065   19.2213   22.3123 H   0  0  0  0  0  0  0  0  0  0  0  0
   17.5808   20.7168   22.8558 H   0  0  0  0  0  0  0  0  0  0  0  0
   19.6584   20.5454   22.4561 C   0  0  0  0  0  0  0  0  0  0  0  0
   19.8916   20.2687   23.4854 H   0  0  0  0  0  0  0  0  0  0  0  0
   19.7748   21.6287   22.3647 H   0  0  0  0  0  0  0  0  0  0  0  0
   20.6293   19.8483   21.4792 C   0  0  0  0  0  0  0  0  0  0  0  0
   20.3553   20.1442   20.4579 H   0  0  0  0  0  0  0  0  0  0  0  0
   21.6453   20.2320   21.6406 H   0  0  0  0  0  0  0  0  0  0  0  0
   20.6382   18.2983   21.5674 C   0  0  0  0  0  0  0  0  0  0  0  0
   21.0035   17.9088   20.6070 H   0  0  0  0  0  0  0  0  0  0  0  0
   19.6166   17.9103   21.6701 H   0  0  0  0  0  0  0  0  0  0  0  0
   21.5429   17.7090   22.6801 C   0  0  0  0  0  0  0  0  0  0  0  0
   21.5391   16.6142   22.5832 H   0  0  0  0  0  0  0  0  0  0  0  0
   22.5834   18.0233   22.5171 H   0  0  0  0  0  0  0  0  0  0  0  0
   21.1151   18.0754   24.1184 C   0  0  0  0  0  0  0  0  0  0  0  0
   20.0472   17.8794   24.2793 H   0  0  0  0  0  0  0  0  0  0  0  0
   21.6787   17.4794   24.8478 H   0  0  0  0  0  0  0  0  0  0  0  0
   21.3172   19.1302   24.3389 H   0  0  0  0  0  0  0  0  0  0  0  0
  1  2  1  0  0  0  0
  1  3  1  0  0  0  0
  1  4  1  0  0  0  0
  1  5  1  0  0  0  0
  5  6  1  0  0  0  0
  5  7  1  0  0  0  0
  5  8  1  0  0  0  0
  8  9  1  0  0  0  0
  8 10  1  0  0  0  0
  8 11  1  0  0  0  0
 11 12  1  0  0  0  0
 11 13  1  0  0  0  0
 11 14  1  0  0  0  0
 14 15  1  0  0  0  0
 14 16  1  0  0  0  0
 14 17  1  0  0  0  0
 17 18  1  0  0  0  0
 17 19  1  0  0  0  0
 17 20  1  0  0  0  0
M  END
> <VConfSearch Rank>
477

> <Conf_Id>
80

> <Delta U+W>
2.920

> <U+W>
-8.857

> <U>
49.434

> <W>
-58.292

> <W(PB)>
-60.170

> <W(SA)>
1.879

> <Valence>
3.798

> <Coulomb>
45.253

> <VdW>
0.384

> <VdW6>
-5.595

> <VdW12>
5.979

> <Bond>
0.198

> <Angle>
1.368

> <Pdih>
2.231

> <Idih>
0.000

> <Tether>
0.000

$$$$
VeraChem MOL file


 20 19  0  0  0  0  0  0  0  0999 V2000     
   21.5236   17.2815   22.3828 N   0  3  0  0  0  0  0  0  0  0  0  0
   21.6846   16.8411   21.4717 H   0  0  0  0  0  0  0  0  0  0  0  0
   22.1907   16.8617   23.0387 H   0  0  0  0  0  0  0  0  0  0  0  0
   20.5870   17.0054   22.6914 H   0  0  0  0  0  0  0  0  0  0  0  0
   21.6732   18.7891   22.3155 C   0  0  0  0  0  0  0  0  0  0  0  0
   22.7044   19.0040   22.0222 H   0  0  0  0  0  0  0  0  0  0  0  0
   21.5202   19.1873   23.3197 H   0  0  0  0  0  0  0  0  0  0  0  0
   20.7115   19.4671   21.3163 C   0  0  0  0  0  0  0  0  0  0  0  0
   20.9684   20.5311   21.2293 H   0  0  0  0  0  0  0  0  0  0  0  0
   20.8904   19.0329   20.3237 H   0  0  0  0  0  0  0  0  0  0  0  0
   19.2053   19.3220   21.6636 C   0  0  0  0  0  0  0  0  0  0  0  0
   18.9836   18.3038   22.0081 H   0  0  0  0  0  0  0  0  0  0  0  0
   18.6323   19.4474   20.7345 H   0  0  0  0  0  0  0  0  0  0  0  0
   18.6641   20.3561   22.6842 C   0  0  0  0  0  0  0  0  0  0  0  0
   18.8022   21.3728   22.2905 H   0  0  0  0  0  0  0  0  0  0  0  0
   17.5784   20.2127   22.7769 H   0  0  0  0  0  0  0  0  0  0  0  0
   19.2931   20.2607   24.0918 C   0  0  0  0  0  0  0  0  0  0  0  0
   20.3299   20.6172   24.0911 H   0  0  0  0  0  0  0  0  0  0  0  0
   18.7370   20.8865   24.8017 H   0  0  0  0  0  0  0  0  0  0  0  0
   19.2746   19.2298   24.4682 H   0  0  0  0  0  0  0  0  0  0  0  0
  1  2  1  0  0  0  0
  1  3  1  0  0  0  0
  1  4  1  0  0  0  0
  1  5  1  0  0  0  0
  5  6  1  0  0  0  0
  5  7  1  0  0  0  0
  5  8  1  0  0  0  0
  8  9  1  0  0  0  0
  8 10  1  0  0  0  0
  8 11  1  0  0  0  0
 11 12  1  0  0  0  0
 11 13  1  0  0  0  0
 11 14  1  0  0  0  0
 14 15  1  0  0  0  0
 14 16  1  0  0  0  0
 14 17  1  0  0  0  0
 17 18  1  0  0  0  0
 17 19  1  0  0  0  0
 17 20  1  0  0  0  0
M  END
> <VConfSearch Rank>
478

> <Conf_Id>
65

> <Delta U+W>
2.949

> <U+W>
-8.829

> <U>
49.435

> <W>
-58.263

> <W(PB)>
-60.125

> <W(SA)>
1.862

> <Valence>
3.797

> <Coulomb>
45.253

> <VdW>
0.384

> <VdW6>
-5.596

> <VdW12>
5.980

> <Bond>
0.198

> <Angle>
1.369

> <Pdih>
2.230

> <Idih>
0.000

> <Tether>
0.000

$$$$
VeraChem MOL file


 20 19  0  0  0  0  0  0  0  0999 V2000     
   20.2277   18.3647   24.2238 N   0  3  0  0  0  0  0  0  0  0  0  0
   19.6296   18.2340   25.0465 H   0  0  0  0  0  0  0  0  0  0  0  0
   19.7582   17.9178   23.4302 H   0  0  0  0  0  0  0  0  0  0  0  0
   21.0930   17.8442   24.3988 H   0  0  0  0  0  0  0  0  0  0  0  0
   20.4989   19.8315   23.9513 C   0  0  0  0  0  0  0  0  0  0  0  0
   20.9992   20.2337   24.8365 H   0  0  0  0  0  0  0  0  0  0  0  0
   19.5430   20.3497   23.8373 H   0  0  0  0  0  0  0  0  0  0  0  0
   21.3835   20.0859   22.7139 C   0  0  0  0  0  0  0  0  0  0  0  0
   21.8537   21.0706   22.8368 H   0  0  0  0  0  0  0  0  0  0  0  0
   22.2089   19.3620   22.6918 H   0  0  0  0  0  0  0  0  0  0  0  0
   20.6345   20.0856   21.3542 C   0  0  0  0  0  0  0  0  0  0  0  0
   21.3691   20.3316   20.5748 H   0  0  0  0  0  0  0  0  0  0  0  0
   19.8990   20.9017   21.3316 H   0  0  0  0  0  0  0  0  0  0  0  0
   19.9555   18.7469   20.9677 C   0  0  0  0  0  0  0  0  0  0  0  0
   20.0361   18.6151   19.8794 H   0  0  0  0  0  0  0  0  0  0  0  0
   20.4979   17.8996   21.4083 H   0  0  0  0  0  0  0  0  0  0  0  0
   18.4546   18.6972   21.3398 C   0  0  0  0  0  0  0  0  0  0  0  0
   18.2793   18.8915   22.4033 H   0  0  0  0  0  0  0  0  0  0  0  0
   17.8910   19.4486   20.7713 H   0  0  0  0  0  0  0  0  0  0  0  0
   18.0288   17.7142   21.0998 H   0  0  0  0  0  0  0  0  0  0  0  0
  1  2  1  0  0  0  0
  1  3  1  0  0  0  0
  1  4  1  0  0  0  0
  1  5  1  0  0  0  0
  5  6  1  0  0  0  0
  5  7  1  0  0  0  0
  5  8  1  0  0  0  0
  8  9  1  0  0  0  0
  8 10  1  0  0  0  0
  8 11  1  0  0  0  0
 11 12  1  0  0  0  0
 11 13  1  0  0  0  0
 11 14  1  0  0  0  0
 14 15  1  0  0  0  0
 14 16  1  0  0  0  0
 14 17  1  0  0  0  0
 17 18  1  0  0  0  0
 17 19  1  0  0  0  0
 17 20  1  0  0  0  0
M  END
> <VConfSearch Rank>
479

> <Conf_Id>
77

> <Delta U+W>
5.366

> <U+W>
-6.412

> <U>
51.542

> <W>
-57.954

> <W(PB)>
-59.811

> <W(SA)>
1.857

> <Valence>
5.347

> <Coulomb>
45.870

> <VdW>
0.325

> <VdW6>
-6.161

> <VdW12>
6.486

> <Bond>
0.201

> <Angle>
1.484

> <Pdih>
3.662

> <Idih>
0.000

> <Tether>
0.000

$$$$
VeraChem MOL file


 20 19  0  0  0  0  0  0  0  0999 V2000     
   20.2631   18.2326   24.2583 N   0  3  0  0  0  0  0  0  0  0  0  0
   20.5940   18.8562   25.0013 H   0  0  0  0  0  0  0  0  0  0  0  0
   19.4066   18.6435   23.8743 H   0  0  0  0  0  0  0  0  0  0  0  0
   20.0039   17.3470   24.7057 H   0  0  0  0  0  0  0  0  0  0  0  0
   21.3123   18.0342   23.1815 C   0  0  0  0  0  0  0  0  0  0  0  0
   20.9342   17.3131   22.4520 H   0  0  0  0  0  0  0  0  0  0  0  0
   22.1894   17.5976   23.6668 H   0  0  0  0  0  0  0  0  0  0  0  0
   21.7286   19.3349   22.4651 C   0  0  0  0  0  0  0  0  0  0  0  0
   21.8417   20.1438   23.1991 H   0  0  0  0  0  0  0  0  0  0  0  0
   22.7285   19.1761   22.0399 H   0  0  0  0  0  0  0  0  0  0  0  0
   20.7904   19.7848   21.3130 C   0  0  0  0  0  0  0  0  0  0  0  0
   20.7865   19.0281   20.5162 H   0  0  0  0  0  0  0  0  0  0  0  0
   21.2329   20.6835   20.8615 H   0  0  0  0  0  0  0  0  0  0  0  0
   19.3370   20.1243   21.7313 C   0  0  0  0  0  0  0  0  0  0  0  0
   19.3100   20.4876   22.7674 H   0  0  0  0  0  0  0  0  0  0  0  0
   18.9824   20.9627   21.1152 H   0  0  0  0  0  0  0  0  0  0  0  0
   18.3562   18.9443   21.5327 C   0  0  0  0  0  0  0  0  0  0  0  0
   17.3535   19.2098   21.8924 H   0  0  0  0  0  0  0  0  0  0  0  0
   18.2683   18.6905   20.4682 H   0  0  0  0  0  0  0  0  0  0  0  0
   18.6764   18.0393   22.0600 H   0  0  0  0  0  0  0  0  0  0  0  0
  1  2  1  0  0  0  0
  1  3  1  0  0  0  0
  1  4  1  0  0  0  0
  1  5  1  0  0  0  0
  5  6  1  0  0  0  0
  5  7  1  0  0  0  0
  5  8  1  0  0  0  0
  8  9  1  0  0  0  0
  8 10  1  0  0  0  0
  8 11  1  0  0  0  0
 11 12  1  0  0  0  0
 11 13  1  0  0  0  0
 11 14  1  0  0  0  0
 14 15  1  0  0  0  0
 14 16  1  0  0  0  0
 14 17  1  0  0  0  0
 17 18  1  0  0  0  0
 17 19  1  0  0  0  0
 17 20  1  0  0  0  0
M  END
> <VConfSearch Rank>
480

> <Conf_Id>
67

> <Delta U+W>
5.353

> <U+W>
-6.425

> <U>
51.541

> <W>
-57.966

> <W(PB)>
-59.821

> <W(SA)>
1.855

> <Valence>
5.347

> <Coulomb>
45.870

> <VdW>
0.325

> <VdW6>
-6.161

> <VdW12>
6.486

> <Bond>
0.201

> <Angle>
1.485

> <Pdih>
3.662

> <Idih>
0.000

> <Tether>
0.000

$$$$
VeraChem MOL file


 20 19  0  0  0  0  0  0  0  0999 V2000     
   18.8293   16.2126   22.1593 N   0  3  0  0  0  0  0  0  0  0  0  0
   17.8826   16.4519   22.4703 H   0  0  0  0  0  0  0  0  0  0  0  0
   18.7305   15.5035   21.4251 H   0  0  0  0  0  0  0  0  0  0  0  0
   19.3001   15.7592   22.9487 H   0  0  0  0  0  0  0  0  0  0  0  0
   19.5891   17.4286   21.6689 C   0  0  0  0  0  0  0  0  0  0  0  0
   19.0491   17.8412   20.8124 H   0  0  0  0  0  0  0  0  0  0  0  0
   20.5731   17.0965   21.3268 H   0  0  0  0  0  0  0  0  0  0  0  0
   19.7552   18.5138   22.7479 C   0  0  0  0  0  0  0  0  0  0  0  0
   18.7650   18.8329   23.1000 H   0  0  0  0  0  0  0  0  0  0  0  0
   20.2837   18.0908   23.6126 H   0  0  0  0  0  0  0  0  0  0  0  0
   20.5337   19.7342   22.2081 C   0  0  0  0  0  0  0  0  0  0  0  0
   20.0048   20.1516   21.3399 H   0  0  0  0  0  0  0  0  0  0  0  0
   21.5217   19.4105   21.8521 H   0  0  0  0  0  0  0  0  0  0  0  0
   20.7065   20.8305   23.2831 C   0  0  0  0  0  0  0  0  0  0  0  0
   19.7203   21.1587   23.6407 H   0  0  0  0  0  0  0  0  0  0  0  0
   21.2370   20.4177   24.1527 H   0  0  0  0  0  0  0  0  0  0  0  0
   21.4847   22.0478   22.7394 C   0  0  0  0  0  0  0  0  0  0  0  0
   20.9608   22.5041   21.8894 H   0  0  0  0  0  0  0  0  0  0  0  0
   21.5971   22.8148   23.5166 H   0  0  0  0  0  0  0  0  0  0  0  0
   22.4894   21.7573   22.4055 H   0  0  0  0  0  0  0  0  0  0  0  0
  1  2  1  0  0  0  0
  1  3  1  0  0  0  0
  1  4  1  0  0  0  0
  1  5  1  0  0  0  0
  5  6  1  0  0  0  0
  5  7  1  0  0  0  0
  5  8  1  0  0  0  0
  8  9  1  0  0  0  0
  8 10  1  0  0  0  0
  8 11  1  0  0  0  0
 11 12  1  0  0  0  0
 11 13  1  0  0  0  0
 11 14  1  0  0  0  0
 14 15  1  0  0  0  0
 14 16  1  0  0  0  0
 14 17  1  0  0  0  0
 17 18  1  0  0  0  0
 17 19  1  0  0  0  0
 17 20  1  0  0  0  0
M  END
> <VConfSearch Rank>
481

> <Conf_Id>
72

> <Delta U+W>
0.000

> <U+W>
-11.778

> <U>
45.772

> <W>
-57.550

> <W(PB)>
-59.511

> <W(SA)>
1.961

> <Valence>
1.299

> <Coulomb>
44.177

> <VdW>
0.297

> <VdW6>
-3.490

> <VdW12>
3.786

> <Bond>
0.096

> <Angle>
0.381

> <Pdih>
0.822

> <Idih>
0.000

> <Tether>
0.000

$$$$
VeraChem MOL file


 20 19  0  0  0  0  0  0  0  0999 V2000     
   17.9862   17.8803   20.7887 N   0  3  0  0  0  0  0  0  0  0  0  0
   18.5977   17.9013   19.9665 H   0  0  0  0  0  0  0  0  0  0  0  0
   18.0511   16.9389   21.1886 H   0  0  0  0  0  0  0  0  0  0  0  0
   17.0256   17.9926   20.4476 H   0  0  0  0  0  0  0  0  0  0  0  0
   18.3545   18.9506   21.7963 C   0  0  0  0  0  0  0  0  0  0  0  0
   17.6462   18.8898   22.6271 H   0  0  0  0  0  0  0  0  0  0  0  0
   18.2345   19.9243   21.3137 H   0  0  0  0  0  0  0  0  0  0  0  0
   19.7916   18.8108   22.3297 C   0  0  0  0  0  0  0  0  0  0  0  0
   19.9122   17.8256   22.7994 H   0  0  0  0  0  0  0  0  0  0  0  0
   20.4920   18.8554   21.4863 H   0  0  0  0  0  0  0  0  0  0  0  0
   20.1229   19.9207   23.3552 C   0  0  0  0  0  0  0  0  0  0  0  0
   19.3662   19.9088   24.1521 H   0  0  0  0  0  0  0  0  0  0  0  0
   20.0472   20.9051   22.8727 H   0  0  0  0  0  0  0  0  0  0  0  0
   21.5212   19.7672   24.0017 C   0  0  0  0  0  0  0  0  0  0  0  0
   21.6321   20.5283   24.7868 H   0  0  0  0  0  0  0  0  0  0  0  0
   21.5929   18.7934   24.5061 H   0  0  0  0  0  0  0  0  0  0  0  0
   22.6841   19.9178   22.9945 C   0  0  0  0  0  0  0  0  0  0  0  0
   22.6195   20.8721   22.4560 H   0  0  0  0  0  0  0  0  0  0  0  0
   23.6496   19.8920   23.5160 H   0  0  0  0  0  0  0  0  0  0  0  0
   22.6869   19.1058   22.2568 H   0  0  0  0  0  0  0  0  0  0  0  0
  1  2  1  0  0  0  0
  1  3  1  0  0  0  0
  1  4  1  0  0  0  0
  1  5  1  0  0  0  0
  5  6  1  0  0  0  0
  5  7  1  0  0  0  0
  5  8  1  0  0  0  0
  8  9  1  0  0  0  0
  8 10  1  0  0  0  0
  8 11  1  0  0  0  0
 11 12  1  0  0  0  0
 11 13  1  0  0  0  0
 11 14  1  0  0  0  0
 14 15  1  0  0  0  0
 14 16  1  0  0  0  0
 14 17  1  0  0  0  0
 17 18  1  0  0  0  0
 17 19  1  0  0  0  0
 17 20  1  0  0  0  0
M  END
> <VConfSearch Rank>
482

> <Conf_Id>
42

> <Delta U+W>
0.508

> <U+W>
-11.270

> <U>
46.486

> <W>
-57.756

> <W(PB)>
-59.705

> <W(SA)>
1.949

> <Valence>
1.806

> <Coulomb>
44.248

> <VdW>
0.433

> <VdW6>
-4.089

> <VdW12>
4.522

> <Bond>
0.131

> <Angle>
0.628

> <Pdih>
1.047

> <Idih>
0.000

> <Tether>
0.000

$$$$
VeraChem MOL file


 20 19  0  0  0  0  0  0  0  0999 V2000     
   18.0993   18.3473   20.4119 N   0  3  0  0  0  0  0  0  0  0  0  0
   17.3735   18.0099   21.0520 H   0  0  0  0  0  0  0  0  0  0  0  0
   17.9051   19.3372   20.2311 H   0  0  0  0  0  0  0  0  0  0  0  0
   17.9666   17.8514   19.5242 H   0  0  0  0  0  0  0  0  0  0  0  0
   19.4915   18.1361   20.9721 C   0  0  0  0  0  0  0  0  0  0  0  0
   20.2116   18.4890   20.2289 H   0  0  0  0  0  0  0  0  0  0  0  0
   19.6399   17.0617   21.1107 H   0  0  0  0  0  0  0  0  0  0  0  0
   19.7244   18.8673   22.3064 C   0  0  0  0  0  0  0  0  0  0  0  0
   19.5555   19.9416   22.1598 H   0  0  0  0  0  0  0  0  0  0  0  0
   18.9892   18.5215   23.0451 H   0  0  0  0  0  0  0  0  0  0  0  0
   21.1551   18.6223   22.8415 C   0  0  0  0  0  0  0  0  0  0  0  0
   21.8905   19.0102   22.1229 H   0  0  0  0  0  0  0  0  0  0  0  0
   21.3312   17.5397   22.9090 H   0  0  0  0  0  0  0  0  0  0  0  0
   21.4103   19.2504   24.2333 C   0  0  0  0  0  0  0  0  0  0  0  0
   20.6918   18.8471   24.9607 H   0  0  0  0  0  0  0  0  0  0  0  0
   22.4058   18.9421   24.5821 H   0  0  0  0  0  0  0  0  0  0  0  0
   21.3388   20.7946   24.2334 C   0  0  0  0  0  0  0  0  0  0  0  0
   20.3265   21.1518   24.0076 H   0  0  0  0  0  0  0  0  0  0  0  0
   21.6159   21.1918   25.2185 H   0  0  0  0  0  0  0  0  0  0  0  0
   22.0280   21.2222   23.4938 H   0  0  0  0  0  0  0  0  0  0  0  0
  1  2  1  0  0  0  0
  1  3  1  0  0  0  0
  1  4  1  0  0  0  0
  1  5  1  0  0  0  0
  5  6  1  0  0  0  0
  5  7  1  0  0  0  0
  5  8  1  0  0  0  0
  8  9  1  0  0  0  0
  8 10  1  0  0  0  0
  8 11  1  0  0  0  0
 11 12  1  0  0  0  0
 11 13  1  0  0  0  0
 11 14  1  0  0  0  0
 14 15  1  0  0  0  0
 14 16  1  0  0  0  0
 14 17  1  0  0  0  0
 17 18  1  0  0  0  0
 17 19  1  0  0  0  0
 17 20  1  0  0  0  0
M  END
> <VConfSearch Rank>
483

> <Conf_Id>
41

> <Delta U+W>
0.515

> <U+W>
-11.263

> <U>
46.486

> <W>
-57.749

> <W(PB)>
-59.685

> <W(SA)>
1.936

> <Valence>
1.806

> <Coulomb>
44.248

> <VdW>
0.433

> <VdW6>
-4.089

> <VdW12>
4.522

> <Bond>
0.131

> <Angle>
0.628

> <Pdih>
1.047

> <Idih>
0.000

> <Tether>
0.000

$$$$
VeraChem MOL file


 20 19  0  0  0  0  0  0  0  0999 V2000     
   20.3358   19.7812   19.7820 N   0  3  0  0  0  0  0  0  0  0  0  0
   20.7906   20.2662   19.0013 H   0  0  0  0  0  0  0  0  0  0  0  0
   20.7205   18.8324   19.8081 H   0  0  0  0  0  0  0  0  0  0  0  0
   19.3426   19.6990   19.5433 H   0  0  0  0  0  0  0  0  0  0  0  0
   20.5426   20.5114   21.0951 C   0  0  0  0  0  0  0  0  0  0  0  0
   20.1484   21.5243   20.9756 H   0  0  0  0  0  0  0  0  0  0  0  0
   21.6182   20.5848   21.2776 H   0  0  0  0  0  0  0  0  0  0  0  0
   19.8570   19.8370   22.2997 C   0  0  0  0  0  0  0  0  0  0  0  0
   19.9670   20.5003   23.1666 H   0  0  0  0  0  0  0  0  0  0  0  0
   18.7798   19.7489   22.1060 H   0  0  0  0  0  0  0  0  0  0  0  0
   20.4543   18.4450   22.6263 C   0  0  0  0  0  0  0  0  0  0  0  0
   21.5274   18.5443   22.8412 H   0  0  0  0  0  0  0  0  0  0  0  0
   20.3747   17.7969   21.7436 H   0  0  0  0  0  0  0  0  0  0  0  0
   19.7535   17.7360   23.8108 C   0  0  0  0  0  0  0  0  0  0  0  0
   18.6820   17.6220   23.5948 H   0  0  0  0  0  0  0  0  0  0  0  0
   20.1581   16.7180   23.9009 H   0  0  0  0  0  0  0  0  0  0  0  0
   19.9372   18.4646   25.1618 C   0  0  0  0  0  0  0  0  0  0  0  0
   19.4391   19.4419   25.1650 H   0  0  0  0  0  0  0  0  0  0  0  0
   19.5050   17.8726   25.9790 H   0  0  0  0  0  0  0  0  0  0  0  0
   21.0006   18.6190   25.3862 H   0  0  0  0  0  0  0  0  0  0  0  0
  1  2  1  0  0  0  0
  1  3  1  0  0  0  0
  1  4  1  0  0  0  0
  1  5  1  0  0  0  0
  5  6  1  0  0  0  0
  5  7  1  0  0  0  0
  5  8  1  0  0  0  0
  8  9  1  0  0  0  0
  8 10  1  0  0  0  0
  8 11  1  0  0  0  0
 11 12  1  0  0  0  0
 11 13  1  0  0  0  0
 11 14  1  0  0  0  0
 14 15  1  0  0  0  0
 14 16  1  0  0  0  0
 14 17  1  0  0  0  0
 17 18  1  0  0  0  0
 17 19  1  0  0  0  0
 17 20  1  0  0  0  0
M  END
> <VConfSearch Rank>
484

> <Conf_Id>
33

> <Delta U+W>
0.703

> <U+W>
-11.075

> <U>
47.080

> <W>
-58.154

> <W(PB)>
-60.053

> <W(SA)>
1.899

> <Valence>
1.943

> <Coulomb>
44.572

> <VdW>
0.565

> <VdW6>
-4.575

> <VdW12>
5.139

> <Bond>
0.158

> <Angle>
0.700

> <Pdih>
1.085

> <Idih>
0.000

> <Tether>
0.000

$$$$
VeraChem MOL file


 20 19  0  0  0  0  0  0  0  0999 V2000     
   20.8210   20.0254   24.9909 N   0  3  0  0  0  0  0  0  0  0  0  0
   21.2945   20.6845   25.6176 H   0  0  0  0  0  0  0  0  0  0  0  0
   19.9972   19.6779   25.4917 H   0  0  0  0  0  0  0  0  0  0  0  0
   21.4538   19.2306   24.8610 H   0  0  0  0  0  0  0  0  0  0  0  0
   20.4482   20.6729   23.6711 C   0  0  0  0  0  0  0  0  0  0  0  0
   21.3647   21.0405   23.2018 H   0  0  0  0  0  0  0  0  0  0  0  0
   19.8116   21.5336   23.8935 H   0  0  0  0  0  0  0  0  0  0  0  0
   19.7099   19.7310   22.6996 C   0  0  0  0  0  0  0  0  0  0  0  0
   18.7991   19.3498   23.1800 H   0  0  0  0  0  0  0  0  0  0  0  0
   19.3847   20.3236   21.8355 H   0  0  0  0  0  0  0  0  0  0  0  0
   20.5935   18.5508   22.2227 C   0  0  0  0  0  0  0  0  0  0  0  0
   20.9459   17.9828   23.0938 H   0  0  0  0  0  0  0  0  0  0  0  0
   21.4916   18.9396   21.7232 H   0  0  0  0  0  0  0  0  0  0  0  0
   19.8571   17.5733   21.2744 C   0  0  0  0  0  0  0  0  0  0  0  0
   20.5123   16.7131   21.0776 H   0  0  0  0  0  0  0  0  0  0  0  0
   18.9650   17.1710   21.7746 H   0  0  0  0  0  0  0  0  0  0  0  0
   19.4541   18.2096   19.9244 C   0  0  0  0  0  0  0  0  0  0  0  0
   20.3242   18.6475   19.4184 H   0  0  0  0  0  0  0  0  0  0  0  0
   19.0242   17.4522   19.2563 H   0  0  0  0  0  0  0  0  0  0  0  0
   18.7010   18.9961   20.0570 H   0  0  0  0  0  0  0  0  0  0  0  0
  1  2  1  0  0  0  0
  1  3  1  0  0  0  0
  1  4  1  0  0  0  0
  1  5  1  0  0  0  0
  5  6  1  0  0  0  0
  5  7  1  0  0  0  0
  5  8  1  0  0  0  0
  8  9  1  0  0  0  0
  8 10  1  0  0  0  0
  8 11  1  0  0  0  0
 11 12  1  0  0  0  0
 11 13  1  0  0  0  0
 11 14  1  0  0  0  0
 14 15  1  0  0  0  0
 14 16  1  0  0  0  0
 14 17  1  0  0  0  0
 17 18  1  0  0  0  0
 17 19  1  0  0  0  0
 17 20  1  0  0  0  0
M  END
> <VConfSearch Rank>
485

> <Conf_Id>
24

> <Delta U+W>
0.847

> <U+W>
-10.931

> <U>
47.080

> <W>
-58.011

> <W(PB)>
-59.914

> <W(SA)>
1.903

> <Valence>
1.943

> <Coulomb>
44.572

> <VdW>
0.565

> <VdW6>
-4.575

> <VdW12>
5.140

> <Bond>
0.158

> <Angle>
0.700

> <Pdih>
1.085

> <Idih>
0.000

> <Tether>
0.000

$$$$
VeraChem MOL file


 20 19  0  0  0  0  0  0  0  0999 V2000     
   19.7940   17.9645   24.9150 N   0  3  0  0  0  0  0  0  0  0  0  0
   18.9227   17.8755   25.4483 H   0  0  0  0  0  0  0  0  0  0  0  0
   19.9839   17.0468   24.5004 H   0  0  0  0  0  0  0  0  0  0  0  0
   20.5398   18.1489   25.5932 H   0  0  0  0  0  0  0  0  0  0  0  0
   19.7025   19.0528   23.8644 C   0  0  0  0  0  0  0  0  0  0  0  0
   19.4704   19.9933   24.3713 H   0  0  0  0  0  0  0  0  0  0  0  0
   18.8716   18.8071   23.1979 H   0  0  0  0  0  0  0  0  0  0  0  0
   20.9962   19.2122   23.0438 C   0  0  0  0  0  0  0  0  0  0  0  0
   21.8314   19.4175   23.7266 H   0  0  0  0  0  0  0  0  0  0  0  0
   21.2351   18.2660   22.5419 H   0  0  0  0  0  0  0  0  0  0  0  0
   20.9090   20.3567   22.0034 C   0  0  0  0  0  0  0  0  0  0  0  0
   21.8645   20.4222   21.4649 H   0  0  0  0  0  0  0  0  0  0  0  0
   20.7950   21.3125   22.5334 H   0  0  0  0  0  0  0  0  0  0  0  0
   19.7567   20.2159   20.9759 C   0  0  0  0  0  0  0  0  0  0  0  0
   18.7852   20.2549   21.4872 H   0  0  0  0  0  0  0  0  0  0  0  0
   19.7783   21.0854   20.3041 H   0  0  0  0  0  0  0  0  0  0  0  0
   19.8453   18.9280   20.1259 C   0  0  0  0  0  0  0  0  0  0  0  0
   19.0642   18.9218   19.3547 H   0  0  0  0  0  0  0  0  0  0  0  0
   20.8167   18.8547   19.6200 H   0  0  0  0  0  0  0  0  0  0  0  0
   19.7087   18.0295   20.7405 H   0  0  0  0  0  0  0  0  0  0  0  0
  1  2  1  0  0  0  0
  1  3  1  0  0  0  0
  1  4  1  0  0  0  0
  1  5  1  0  0  0  0
  5  6  1  0  0  0  0
  5  7  1  0  0  0  0
  5  8  1  0  0  0  0
  8  9  1  0  0  0  0
  8 10  1  0  0  0  0
  8 11  1  0  0  0  0
 11 12  1  0  0  0  0
 11 13  1  0  0  0  0
 11 14  1  0  0  0  0
 14 15  1  0  0  0  0
 14 16  1  0  0  0  0
 14 17  1  0  0  0  0
 17 18  1  0  0  0  0
 17 19  1  0  0  0  0
 17 20  1  0  0  0  0
M  END
> <VConfSearch Rank>
486

> <Conf_Id>
64

> <Delta U+W>
0.707

> <U+W>
-11.070

> <U>
47.077

> <W>
-58.148

> <W(PB)>
-60.054

> <W(SA)>
1.906

> <Valence>
2.039

> <Coulomb>
44.655

> <VdW>
0.383

> <VdW6>
-4.912

> <VdW12>
5.295

> <Bond>
0.159

> <Angle>
0.856

> <Pdih>
1.024

> <Idih>
0.000

> <Tether>
0.000

$$$$
VeraChem MOL file


 20 19  0  0  0  0  0  0  0  0999 V2000     
   20.5301   20.3575   24.8898 N   0  3  0  0  0  0  0  0  0  0  0  0
   20.0407   19.9204   25.6770 H   0  0  0  0  0  0  0  0  0  0  0  0
   21.5104   20.0635   24.9439 H   0  0  0  0  0  0  0  0  0  0  0  0
   20.5135   21.3694   25.0545 H   0  0  0  0  0  0  0  0  0  0  0  0
   19.9019   19.9929   23.5599 C   0  0  0  0  0  0  0  0  0  0  0  0
   20.4530   20.5156   22.7737 H   0  0  0  0  0  0  0  0  0  0  0  0
   18.8721   20.3601   23.5605 H   0  0  0  0  0  0  0  0  0  0  0  0
   19.9114   18.4781   23.2810 C   0  0  0  0  0  0  0  0  0  0  0  0
   20.9441   18.1068   23.2893 H   0  0  0  0  0  0  0  0  0  0  0  0
   19.3916   17.9595   24.0975 H   0  0  0  0  0  0  0  0  0  0  0  0
   19.2270   18.1110   21.9405 C   0  0  0  0  0  0  0  0  0  0  0  0
   18.1625   18.3773   21.9991 H   0  0  0  0  0  0  0  0  0  0  0  0
   19.2586   17.0203   21.8114 H   0  0  0  0  0  0  0  0  0  0  0  0
   19.8422   18.7877   20.6888 C   0  0  0  0  0  0  0  0  0  0  0  0
   19.2710   18.4729   19.8042 H   0  0  0  0  0  0  0  0  0  0  0  0
   19.7247   19.8782   20.7504 H   0  0  0  0  0  0  0  0  0  0  0  0
   21.3316   18.4369   20.4701 C   0  0  0  0  0  0  0  0  0  0  0  0
   21.4789   17.3500   20.4256 H   0  0  0  0  0  0  0  0  0  0  0  0
   21.6922   18.8633   19.5251 H   0  0  0  0  0  0  0  0  0  0  0  0
   21.9619   18.8371   21.2740 H   0  0  0  0  0  0  0  0  0  0  0  0
  1  2  1  0  0  0  0
  1  3  1  0  0  0  0
  1  4  1  0  0  0  0
  1  5  1  0  0  0  0
  5  6  1  0  0  0  0
  5  7  1  0  0  0  0
  5  8  1  0  0  0  0
  8  9  1  0  0  0  0
  8 10  1  0  0  0  0
  8 11  1  0  0  0  0
 11 12  1  0  0  0  0
 11 13  1  0  0  0  0
 11 14  1  0  0  0  0
 14 15  1  0  0  0  0
 14 16  1  0  0  0  0
 14 17  1  0  0  0  0
 17 18  1  0  0  0  0
 17 19  1  0  0  0  0
 17 20  1  0  0  0  0
M  END
> <VConfSearch Rank>
487

> <Conf_Id>
22

> <Delta U+W>
0.731

> <U+W>
-11.047

> <U>
47.078

> <W>
-58.125

> <W(PB)>
-60.031

> <W(SA)>
1.906

> <Valence>
2.039

> <Coulomb>
44.655

> <VdW>
0.383

> <VdW6>
-4.913

> <VdW12>
5.296

> <Bond>
0.159

> <Angle>
0.856

> <Pdih>
1.024

> <Idih>
0.000

> <Tether>
0.000

$$$$
VeraChem MOL file


 20 19  0  0  0  0  0  0  0  0999 V2000     
   20.9470   17.4906   24.5021 N   0  3  0  0  0  0  0  0  0  0  0  0
   21.6234   18.0613   25.0189 H   0  0  0  0  0  0  0  0  0  0  0  0
   20.1865   17.2640   25.1506 H   0  0  0  0  0  0  0  0  0  0  0  0
   21.4158   16.6075   24.2740 H   0  0  0  0  0  0  0  0  0  0  0  0
   20.4413   18.1973   23.2606 C   0  0  0  0  0  0  0  0  0  0  0  0
   19.7494   17.5246   22.7465 H   0  0  0  0  0  0  0  0  0  0  0  0
   21.2993   18.3778   22.6091 H   0  0  0  0  0  0  0  0  0  0  0  0
   19.7368   19.5304   23.5690 C   0  0  0  0  0  0  0  0  0  0  0  0
   18.9532   19.3508   24.3172 H   0  0  0  0  0  0  0  0  0  0  0  0
   20.4524   20.2239   24.0301 H   0  0  0  0  0  0  0  0  0  0  0  0
   19.0882   20.1994   22.3306 C   0  0  0  0  0  0  0  0  0  0  0  0
   18.5421   21.0857   22.6828 H   0  0  0  0  0  0  0  0  0  0  0  0
   18.3277   19.5359   21.8962 H   0  0  0  0  0  0  0  0  0  0  0  0
   20.0879   20.6564   21.2365 C   0  0  0  0  0  0  0  0  0  0  0  0
   19.6491   21.5123   20.7045 H   0  0  0  0  0  0  0  0  0  0  0  0
   21.0129   21.0301   21.6974 H   0  0  0  0  0  0  0  0  0  0  0  0
   20.4130   19.5655   20.1892 C   0  0  0  0  0  0  0  0  0  0  0  0
   20.9386   18.7111   20.6281 H   0  0  0  0  0  0  0  0  0  0  0  0
   19.4976   19.1935   19.7110 H   0  0  0  0  0  0  0  0  0  0  0  0
   21.0566   19.9745   19.3996 H   0  0  0  0  0  0  0  0  0  0  0  0
  1  2  1  0  0  0  0
  1  3  1  0  0  0  0
  1  4  1  0  0  0  0
  1  5  1  0  0  0  0
  5  6  1  0  0  0  0
  5  7  1  0  0  0  0
  5  8  1  0  0  0  0
  8  9  1  0  0  0  0
  8 10  1  0  0  0  0
  8 11  1  0  0  0  0
 11 12  1  0  0  0  0
 11 13  1  0  0  0  0
 11 14  1  0  0  0  0
 14 15  1  0  0  0  0
 14 16  1  0  0  0  0
 14 17  1  0  0  0  0
 17 18  1  0  0  0  0
 17 19  1  0  0  0  0
 17 20  1  0  0  0  0
M  END
> <VConfSearch Rank>
488

> <Conf_Id>
61

> <Delta U+W>
2.669

> <U+W>
-9.108

> <U>
48.916

> <W>
-58.025

> <W(PB)>
-59.935

> <W(SA)>
1.911

> <Valence>
3.785

> <Coulomb>
44.716

> <VdW>
0.415

> <VdW6>
-4.836

> <VdW12>
5.251

> <Bond>
0.175

> <Angle>
1.195

> <Pdih>
2.415

> <Idih>
0.000

> <Tether>
0.000

$$$$
VeraChem MOL file


 20 19  0  0  0  0  0  0  0  0999 V2000     
   19.0311   19.7495   24.3103 N   0  3  0  0  0  0  0  0  0  0  0  0
   18.7468   19.4902   25.2608 H   0  0  0  0  0  0  0  0  0  0  0  0
   18.5942   20.6539   24.1065 H   0  0  0  0  0  0  0  0  0  0  0  0
   18.6158   19.0635   23.6747 H   0  0  0  0  0  0  0  0  0  0  0  0
   20.5403   19.8100   24.1721 C   0  0  0  0  0  0  0  0  0  0  0  0
   20.9557   18.8394   24.4562 H   0  0  0  0  0  0  0  0  0  0  0  0
   20.8959   20.5530   24.8912 H   0  0  0  0  0  0  0  0  0  0  0  0
   21.0353   20.1997   22.7633 C   0  0  0  0  0  0  0  0  0  0  0  0
   20.4244   21.0198   22.3631 H   0  0  0  0  0  0  0  0  0  0  0  0
   22.0509   20.6043   22.8667 H   0  0  0  0  0  0  0  0  0  0  0  0
   21.0930   19.0256   21.7525 C   0  0  0  0  0  0  0  0  0  0  0  0
   21.7543   18.2393   22.1421 H   0  0  0  0  0  0  0  0  0  0  0  0
   21.5647   19.3918   20.8301 H   0  0  0  0  0  0  0  0  0  0  0  0
   19.7166   18.4141   21.4004 C   0  0  0  0  0  0  0  0  0  0  0  0
   19.2940   17.9087   22.2777 H   0  0  0  0  0  0  0  0  0  0  0  0
   19.0164   19.2107   21.1121 H   0  0  0  0  0  0  0  0  0  0  0  0
   19.8268   17.3910   20.2496 C   0  0  0  0  0  0  0  0  0  0  0  0
   18.8441   16.9597   20.0187 H   0  0  0  0  0  0  0  0  0  0  0  0
   20.2095   17.8633   19.3355 H   0  0  0  0  0  0  0  0  0  0  0  0
   20.5016   16.5674   20.5169 H   0  0  0  0  0  0  0  0  0  0  0  0
  1  2  1  0  0  0  0
  1  3  1  0  0  0  0
  1  4  1  0  0  0  0
  1  5  1  0  0  0  0
  5  6  1  0  0  0  0
  5  7  1  0  0  0  0
  5  8  1  0  0  0  0
  8  9  1  0  0  0  0
  8 10  1  0  0  0  0
  8 11  1  0  0  0  0
 11 12  1  0  0  0  0
 11 13  1  0  0  0  0
 11 14  1  0  0  0  0
 14 15  1  0  0  0  0
 14 16  1  0  0  0  0
 14 17  1  0  0  0  0
 17 18  1  0  0  0  0
 17 19  1  0  0  0  0
 17 20  1  0  0  0  0
M  END
> <VConfSearch Rank>
489

> <Conf_Id>
69

> <Delta U+W>
2.811

> <U+W>
-8.967

> <U>
49.216

> <W>
-58.183

> <W(PB)>
-60.064

> <W(SA)>
1.881

> <Valence>
2.929

> <Coulomb>
46.006

> <VdW>
0.281

> <VdW6>
-4.909

> <VdW12>
5.190

> <Bond>
0.156

> <Angle>
0.974

> <Pdih>
1.799

> <Idih>
0.000

> <Tether>
0.000

$$$$
VeraChem MOL file


 20 19  0  0  0  0  0  0  0  0999 V2000     
   19.5098   20.6360   20.7556 N   0  3  0  0  0  0  0  0  0  0  0  0
   20.2638   19.9555   20.6312 H   0  0  0  0  0  0  0  0  0  0  0  0
   18.6854   20.2659   20.2723 H   0  0  0  0  0  0  0  0  0  0  0  0
   19.7881   21.4882   20.2575 H   0  0  0  0  0  0  0  0  0  0  0  0
   19.2279   20.9086   22.2207 C   0  0  0  0  0  0  0  0  0  0  0  0
   18.4247   21.6496   22.2574 H   0  0  0  0  0  0  0  0  0  0  0  0
   20.1193   21.3542   22.6704 H   0  0  0  0  0  0  0  0  0  0  0  0
   18.7993   19.6654   23.0283 C   0  0  0  0  0  0  0  0  0  0  0  0
   18.2456   20.0148   23.9098 H   0  0  0  0  0  0  0  0  0  0  0  0
   18.0884   19.0645   22.4456 H   0  0  0  0  0  0  0  0  0  0  0  0
   19.9733   18.7828   23.5248 C   0  0  0  0  0  0  0  0  0  0  0  0
   19.5608   18.0019   24.1786 H   0  0  0  0  0  0  0  0  0  0  0  0
   20.6434   19.3849   24.1538 H   0  0  0  0  0  0  0  0  0  0  0  0
   20.7908   18.1094   22.3976 C   0  0  0  0  0  0  0  0  0  0  0  0
   20.1142   17.5934   21.7021 H   0  0  0  0  0  0  0  0  0  0  0  0
   21.3345   18.8691   21.8221 H   0  0  0  0  0  0  0  0  0  0  0  0
   21.8108   17.0974   22.9620 C   0  0  0  0  0  0  0  0  0  0  0  0
   21.3066   16.2937   23.5143 H   0  0  0  0  0  0  0  0  0  0  0  0
   22.3889   16.6360   22.1508 H   0  0  0  0  0  0  0  0  0  0  0  0
   22.5185   17.5882   23.6428 H   0  0  0  0  0  0  0  0  0  0  0  0
  1  2  1  0  0  0  0
  1  3  1  0  0  0  0
  1  4  1  0  0  0  0
  1  5  1  0  0  0  0
  5  6  1  0  0  0  0
  5  7  1  0  0  0  0
  5  8  1  0  0  0  0
  8  9  1  0  0  0  0
  8 10  1  0  0  0  0
  8 11  1  0  0  0  0
 11 12  1  0  0  0  0
 11 13  1  0  0  0  0
 11 14  1  0  0  0  0
 14 15  1  0  0  0  0
 14 16  1  0  0  0  0
 14 17  1  0  0  0  0
 17 18  1  0  0  0  0
 17 19  1  0  0  0  0
 17 20  1  0  0  0  0
M  END
> <VConfSearch Rank>
490

> <Conf_Id>
26

> <Delta U+W>
2.809

> <U+W>
-8.969

> <U>
49.216

> <W>
-58.185

> <W(PB)>
-60.088

> <W(SA)>
1.903

> <Valence>
2.929

> <Coulomb>
46.006

> <VdW>
0.281

> <VdW6>
-4.909

> <VdW12>
5.190

> <Bond>
0.156

> <Angle>
0.974

> <Pdih>
1.799

> <Idih>
0.000

> <Tether>
0.000

$$$$
VeraChem MOL file


 20 19  0  0  0  0  0  0  0  0999 V2000     
   20.9533   19.0558   24.7356 N   0  3  0  0  0  0  0  0  0  0  0  0
   21.6745   19.5224   24.1779 H   0  0  0  0  0  0  0  0  0  0  0  0
   20.5917   19.7457   25.4014 H   0  0  0  0  0  0  0  0  0  0  0  0
   21.4221   18.3280   25.2850 H   0  0  0  0  0  0  0  0  0  0  0  0
   19.8529   18.4831   23.8637 C   0  0  0  0  0  0  0  0  0  0  0  0
   19.1390   17.9761   24.5186 H   0  0  0  0  0  0  0  0  0  0  0  0
   20.2977   17.7343   23.2030 H   0  0  0  0  0  0  0  0  0  0  0  0
   19.1128   19.5436   23.0236 C   0  0  0  0  0  0  0  0  0  0  0  0
   18.2892   19.0571   22.4856 H   0  0  0  0  0  0  0  0  0  0  0  0
   18.6417   20.2711   23.6976 H   0  0  0  0  0  0  0  0  0  0  0  0
   20.0211   20.2955   22.0153 C   0  0  0  0  0  0  0  0  0  0  0  0
   20.7438   20.9119   22.5666 H   0  0  0  0  0  0  0  0  0  0  0  0
   19.4044   21.0021   21.4428 H   0  0  0  0  0  0  0  0  0  0  0  0
   20.7909   19.3823   21.0271 C   0  0  0  0  0  0  0  0  0  0  0  0
   21.4145   20.0140   20.3790 H   0  0  0  0  0  0  0  0  0  0  0  0
   21.4869   18.7317   21.5737 H   0  0  0  0  0  0  0  0  0  0  0  0
   19.8640   18.5210   20.1394 C   0  0  0  0  0  0  0  0  0  0  0  0
   19.1463   19.1472   19.5938 H   0  0  0  0  0  0  0  0  0  0  0  0
   20.4512   17.9615   19.3997 H   0  0  0  0  0  0  0  0  0  0  0  0
   19.3011   17.7910   20.7342 H   0  0  0  0  0  0  0  0  0  0  0  0
  1  2  1  0  0  0  0
  1  3  1  0  0  0  0
  1  4  1  0  0  0  0
  1  5  1  0  0  0  0
  5  6  1  0  0  0  0
  5  7  1  0  0  0  0
  5  8  1  0  0  0  0
  8  9  1  0  0  0  0
  8 10  1  0  0  0  0
  8 11  1  0  0  0  0
 11 12  1  0  0  0  0
 11 13  1  0  0  0  0
 11 14  1  0  0  0  0
 14 15  1  0  0  0  0
 14 16  1  0  0  0  0
 14 17  1  0  0  0  0
 17 18  1  0  0  0  0
 17 19  1  0  0  0  0
 17 20  1  0  0  0  0
M  END
> <VConfSearch Rank>
491

> <Conf_Id>
2

> <Delta U+W>
0.994

> <U+W>
-10.784

> <U>
47.562

> <W>
-58.346

> <W(PB)>
-60.221

> <W(SA)>
1.875

> <Valence>
2.149

> <Coulomb>
45.034

> <VdW>
0.378

> <VdW6>
-5.599

> <VdW12>
5.977

> <Bond>
0.185

> <Angle>
0.935

> <Pdih>
1.028

> <Idih>
0.000

> <Tether>
0.000

$$$$
VeraChem MOL file


 20 19  0  0  0  0  0  0  0  0999 V2000     
   17.9047   19.3573   23.2613 N   0  3  0  0  0  0  0  0  0  0  0  0
   17.7801   19.8085   24.1728 H   0  0  0  0  0  0  0  0  0  0  0  0
   18.0751   20.0999   22.5768 H   0  0  0  0  0  0  0  0  0  0  0  0
   17.0079   18.9239   23.0178 H   0  0  0  0  0  0  0  0  0  0  0  0
   19.0329   18.3446   23.2830 C   0  0  0  0  0  0  0  0  0  0  0  0
   19.0906   17.8788   22.2958 H   0  0  0  0  0  0  0  0  0  0  0  0
   18.7709   17.5697   24.0087 H   0  0  0  0  0  0  0  0  0  0  0  0
   20.4021   18.9501   23.6529 C   0  0  0  0  0  0  0  0  0  0  0  0
   20.3425   19.3850   24.6594 H   0  0  0  0  0  0  0  0  0  0  0  0
   21.1404   18.1408   23.7200 H   0  0  0  0  0  0  0  0  0  0  0  0
   20.9029   20.0308   22.6588 C   0  0  0  0  0  0  0  0  0  0  0  0
   21.8936   20.3777   22.9834 H   0  0  0  0  0  0  0  0  0  0  0  0
   20.2471   20.9098   22.7167 H   0  0  0  0  0  0  0  0  0  0  0  0
   20.9900   19.5658   21.1825 C   0  0  0  0  0  0  0  0  0  0  0  0
   19.9916   19.3049   20.8063 H   0  0  0  0  0  0  0  0  0  0  0  0
   21.3323   20.4106   20.5684 H   0  0  0  0  0  0  0  0  0  0  0  0
   21.9519   18.3748   20.9706 C   0  0  0  0  0  0  0  0  0  0  0  0
   21.5897   17.4700   21.4744 H   0  0  0  0  0  0  0  0  0  0  0  0
   22.0464   18.1421   19.9021 H   0  0  0  0  0  0  0  0  0  0  0  0
   22.9546   18.6041   21.3540 H   0  0  0  0  0  0  0  0  0  0  0  0
  1  2  1  0  0  0  0
  1  3  1  0  0  0  0
  1  4  1  0  0  0  0
  1  5  1  0  0  0  0
  5  6  1  0  0  0  0
  5  7  1  0  0  0  0
  5  8  1  0  0  0  0
  8  9  1  0  0  0  0
  8 10  1  0  0  0  0
  8 11  1  0  0  0  0
 11 12  1  0  0  0  0
 11 13  1  0  0  0  0
 11 14  1  0  0  0  0
 14 15  1  0  0  0  0
 14 16  1  0  0  0  0
 14 17  1  0  0  0  0
 17 18  1  0  0  0  0
 17 19  1  0  0  0  0
 17 20  1  0  0  0  0
M  END
> <VConfSearch Rank>
492

> <Conf_Id>
1

> <Delta U+W>
1.032

> <U+W>
-10.746

> <U>
47.562

> <W>
-58.308

> <W(PB)>
-60.184

> <W(SA)>
1.877

> <Valence>
2.149

> <Coulomb>
45.035

> <VdW>
0.378

> <VdW6>
-5.599

> <VdW12>
5.978

> <Bond>
0.185

> <Angle>
0.935

> <Pdih>
1.028

> <Idih>
0.000

> <Tether>
0.000

$$$$
VeraChem MOL file


 20 19  0  0  0  0  0  0  0  0999 V2000     
   20.3831   20.8002   24.0979 N   0  3  0  0  0  0  0  0  0  0  0  0
   19.5854   21.4303   24.2277 H   0  0  0  0  0  0  0  0  0  0  0  0
   20.1561   19.9224   24.5740 H   0  0  0  0  0  0  0  0  0  0  0  0
   21.1757   21.2158   24.5983 H   0  0  0  0  0  0  0  0  0  0  0  0
   20.6962   20.5809   22.6304 C   0  0  0  0  0  0  0  0  0  0  0  0
   21.5694   19.9298   22.5667 H   0  0  0  0  0  0  0  0  0  0  0  0
   20.9682   21.5505   22.2043 H   0  0  0  0  0  0  0  0  0  0  0  0
   19.5220   19.9857   21.8244 C   0  0  0  0  0  0  0  0  0  0  0  0
   18.6637   20.6636   21.9224 H   0  0  0  0  0  0  0  0  0  0  0  0
   19.7797   19.9799   20.7571 H   0  0  0  0  0  0  0  0  0  0  0  0
   19.0889   18.5609   22.2632 C   0  0  0  0  0  0  0  0  0  0  0  0
   18.0459   18.4148   21.9497 H   0  0  0  0  0  0  0  0  0  0  0  0
   19.0790   18.4788   23.3576 H   0  0  0  0  0  0  0  0  0  0  0  0
   19.9219   17.4043   21.6529 C   0  0  0  0  0  0  0  0  0  0  0  0
   19.4662   16.4525   21.9600 H   0  0  0  0  0  0  0  0  0  0  0  0
   19.8500   17.4340   20.5566 H   0  0  0  0  0  0  0  0  0  0  0  0
   21.4091   17.3929   22.0700 C   0  0  0  0  0  0  0  0  0  0  0  0
   21.5190   17.4783   23.1587 H   0  0  0  0  0  0  0  0  0  0  0  0
   21.8860   16.4548   21.7577 H   0  0  0  0  0  0  0  0  0  0  0  0
   21.9637   18.2104   21.5944 H   0  0  0  0  0  0  0  0  0  0  0  0
  1  2  1  0  0  0  0
  1  3  1  0  0  0  0
  1  4  1  0  0  0  0
  1  5  1  0  0  0  0
  5  6  1  0  0  0  0
  5  7  1  0  0  0  0
  5  8  1  0  0  0  0
  8  9  1  0  0  0  0
  8 10  1  0  0  0  0
  8 11  1  0  0  0  0
 11 12  1  0  0  0  0
 11 13  1  0  0  0  0
 11 14  1  0  0  0  0
 14 15  1  0  0  0  0
 14 16  1  0  0  0  0
 14 17  1  0  0  0  0
 17 18  1  0  0  0  0
 17 19  1  0  0  0  0
 17 20  1  0  0  0  0
M  END
> <VConfSearch Rank>
493

> <Conf_Id>
80

> <Delta U+W>
2.920

> <U+W>
-8.857

> <U>
49.434

> <W>
-58.292

> <W(PB)>
-60.170

> <W(SA)>
1.879

> <Valence>
3.798

> <Coulomb>
45.253

> <VdW>
0.384

> <VdW6>
-5.595

> <VdW12>
5.979

> <Bond>
0.198

> <Angle>
1.368

> <Pdih>
2.231

> <Idih>
0.000

> <Tether>
0.000

$$$$
VeraChem MOL file


 20 19  0  0  0  0  0  0  0  0999 V2000     
   20.2147   21.5313   22.3498 N   0  3  0  0  0  0  0  0  0  0  0  0
   19.4611   22.0577   22.8025 H   0  0  0  0  0  0  0  0  0  0  0  0
   20.9455   22.2076   22.1051 H   0  0  0  0  0  0  0  0  0  0  0  0
   19.8412   21.1634   21.4701 H   0  0  0  0  0  0  0  0  0  0  0  0
   20.7464   20.4263   23.2422 C   0  0  0  0  0  0  0  0  0  0  0  0
   21.1637   20.8982   24.1359 H   0  0  0  0  0  0  0  0  0  0  0  0
   21.5616   19.9301   22.7133 H   0  0  0  0  0  0  0  0  0  0  0  0
   19.6762   19.3979   23.6661 C   0  0  0  0  0  0  0  0  0  0  0  0
   20.1049   18.7122   24.4088 H   0  0  0  0  0  0  0  0  0  0  0  0
   18.8722   19.9373   24.1844 H   0  0  0  0  0  0  0  0  0  0  0  0
   19.0608   18.5814   22.4979 C   0  0  0  0  0  0  0  0  0  0  0  0
   18.8635   19.2293   21.6341 H   0  0  0  0  0  0  0  0  0  0  0  0
   18.0755   18.2195   22.8228 H   0  0  0  0  0  0  0  0  0  0  0  0
   19.8850   17.3449   22.0552 C   0  0  0  0  0  0  0  0  0  0  0  0
   19.9979   16.6525   22.9011 H   0  0  0  0  0  0  0  0  0  0  0  0
   19.3080   16.8010   21.2941 H   0  0  0  0  0  0  0  0  0  0  0  0
   21.2769   17.6747   21.4722 C   0  0  0  0  0  0  0  0  0  0  0  0
   21.9678   18.0117   22.2539 H   0  0  0  0  0  0  0  0  0  0  0  0
   21.7198   16.7816   21.0129 H   0  0  0  0  0  0  0  0  0  0  0  0
   21.2120   18.4516   20.6995 H   0  0  0  0  0  0  0  0  0  0  0  0
  1  2  1  0  0  0  0
  1  3  1  0  0  0  0
  1  4  1  0  0  0  0
  1  5  1  0  0  0  0
  5  6  1  0  0  0  0
  5  7  1  0  0  0  0
  5  8  1  0  0  0  0
  8  9  1  0  0  0  0
  8 10  1  0  0  0  0
  8 11  1  0  0  0  0
 11 12  1  0  0  0  0
 11 13  1  0  0  0  0
 11 14  1  0  0  0  0
 14 15  1  0  0  0  0
 14 16  1  0  0  0  0
 14 17  1  0  0  0  0
 17 18  1  0  0  0  0
 17 19  1  0  0  0  0
 17 20  1  0  0  0  0
M  END
> <VConfSearch Rank>
494

> <Conf_Id>
65

> <Delta U+W>
2.949

> <U+W>
-8.829

> <U>
49.435

> <W>
-58.263

> <W(PB)>
-60.125

> <W(SA)>
1.862

> <Valence>
3.797

> <Coulomb>
45.253

> <VdW>
0.384

> <VdW6>
-5.596

> <VdW12>
5.980

> <Bond>
0.198

> <Angle>
1.369

> <Pdih>
2.230

> <Idih>
0.000

> <Tether>
0.000

$$$$
VeraChem MOL file


 20 19  0  0  0  0  0  0  0  0999 V2000     
   21.3242   20.7553   22.1361 N   0  3  0  0  0  0  0  0  0  0  0  0
   21.4631   21.4798   21.4237 H   0  0  0  0  0  0  0  0  0  0  0  0
   20.3833   20.8817   22.5216 H   0  0  0  0  0  0  0  0  0  0  0  0
   21.9911   20.9474   22.8903 H   0  0  0  0  0  0  0  0  0  0  0  0
   21.5057   19.3619   21.5660 C   0  0  0  0  0  0  0  0  0  0  0  0
   22.5269   19.3055   21.1794 H   0  0  0  0  0  0  0  0  0  0  0  0
   20.8175   19.2342   20.7262 H   0  0  0  0  0  0  0  0  0  0  0  0
   21.2935   18.2319   22.5938 C   0  0  0  0  0  0  0  0  0  0  0  0
   21.8321   17.3461   22.2316 H   0  0  0  0  0  0  0  0  0  0  0  0
   21.7692   18.5013   23.5462 H   0  0  0  0  0  0  0  0  0  0  0  0
   19.8149   17.8225   22.8308 C   0  0  0  0  0  0  0  0  0  0  0  0
   19.8167   16.9799   23.5361 H   0  0  0  0  0  0  0  0  0  0  0  0
   19.3826   17.4259   21.9017 H   0  0  0  0  0  0  0  0  0  0  0  0
   18.9013   18.9319   23.4114 C   0  0  0  0  0  0  0  0  0  0  0  0
   18.1800   18.4671   24.0984 H   0  0  0  0  0  0  0  0  0  0  0  0
   19.4864   19.6293   24.0258 H   0  0  0  0  0  0  0  0  0  0  0  0
   18.0996   19.6887   22.3259 C   0  0  0  0  0  0  0  0  0  0  0  0
   18.7447   20.1253   21.5559 H   0  0  0  0  0  0  0  0  0  0  0  0
   17.3982   19.0113   21.8215 H   0  0  0  0  0  0  0  0  0  0  0  0
   17.5105   20.4992   22.7746 H   0  0  0  0  0  0  0  0  0  0  0  0
  1  2  1  0  0  0  0
  1  3  1  0  0  0  0
  1  4  1  0  0  0  0
  1  5  1  0  0  0  0
  5  6  1  0  0  0  0
  5  7  1  0  0  0  0
  5  8  1  0  0  0  0
  8  9  1  0  0  0  0
  8 10  1  0  0  0  0
  8 11  1  0  0  0  0
 11 12  1  0  0  0  0
 11 13  1  0  0  0  0
 11 14  1  0  0  0  0
 14 15  1  0  0  0  0
 14 16  1  0  0  0  0
 14 17  1  0  0  0  0
 17 18  1  0  0  0  0
 17 19  1  0  0  0  0
 17 20  1  0  0  0  0
M  END
> <VConfSearch Rank>
495

> <Conf_Id>
77

> <Delta U+W>
5.366

> <U+W>
-6.412

> <U>
51.542

> <W>
-57.954

> <W(PB)>
-59.811

> <W(SA)>
1.857

> <Valence>
5.347

> <Coulomb>
45.870

> <VdW>
0.325

> <VdW6>
-6.161

> <VdW12>
6.486

> <Bond>
0.201

> <Angle>
1.484

> <Pdih>
3.662

> <Idih>
0.000

> <Tether>
0.000

$$$$
VeraChem MOL file


 20 19  0  0  0  0  0  0  0  0999 V2000     
   19.4084   17.2314   22.5907 N   0  3  0  0  0  0  0  0  0  0  0  0
   19.2325   16.7637   21.6958 H   0  0  0  0  0  0  0  0  0  0  0  0
   20.4190   17.3844   22.6613 H   0  0  0  0  0  0  0  0  0  0  0  0
   19.1465   16.5700   23.3293 H   0  0  0  0  0  0  0  0  0  0  0  0
   18.6425   18.5353   22.7040 C   0  0  0  0  0  0  0  0  0  0  0  0
   18.8135   18.9573   23.6979 H   0  0  0  0  0  0  0  0  0  0  0  0
   17.5804   18.2904   22.6177 H   0  0  0  0  0  0  0  0  0  0  0  0
   19.0091   19.5733   21.6239 C   0  0  0  0  0  0  0  0  0  0  0  0
   19.1064   19.0770   20.6491 H   0  0  0  0  0  0  0  0  0  0  0  0
   18.1612   20.2639   21.5235 H   0  0  0  0  0  0  0  0  0  0  0  0
   20.2758   20.4194   21.9227 C   0  0  0  0  0  0  0  0  0  0  0  0
   20.1200   21.0191   22.8302 H   0  0  0  0  0  0  0  0  0  0  0  0
   20.3848   21.1467   21.1061 H   0  0  0  0  0  0  0  0  0  0  0  0
   21.5997   19.6210   22.0335 C   0  0  0  0  0  0  0  0  0  0  0  0
   21.5569   18.7174   21.4107 H   0  0  0  0  0  0  0  0  0  0  0  0
   22.4122   20.2307   21.6135 H   0  0  0  0  0  0  0  0  0  0  0  0
   21.9777   19.2705   23.4923 C   0  0  0  0  0  0  0  0  0  0  0  0
   22.8892   18.6593   23.5197 H   0  0  0  0  0  0  0  0  0  0  0  0
   22.1749   20.1832   24.0698 H   0  0  0  0  0  0  0  0  0  0  0  0
   21.1852   18.7198   24.0103 H   0  0  0  0  0  0  0  0  0  0  0  0
  1  2  1  0  0  0  0
  1  3  1  0  0  0  0
  1  4  1  0  0  0  0
  1  5  1  0  0  0  0
  5  6  1  0  0  0  0
  5  7  1  0  0  0  0
  5  8  1  0  0  0  0
  8  9  1  0  0  0  0
  8 10  1  0  0  0  0
  8 11  1  0  0  0  0
 11 12  1  0  0  0  0
 11 13  1  0  0  0  0
 11 14  1  0  0  0  0
 14 15  1  0  0  0  0
 14 16  1  0  0  0  0
 14 17  1  0  0  0  0
 17 18  1  0  0  0  0
 17 19  1  0  0  0  0
 17 20  1  0  0  0  0
M  END
> <VConfSearch Rank>
496

> <Conf_Id>
67

> <Delta U+W>
5.353

> <U+W>
-6.425

> <U>
51.541

> <W>
-57.966

> <W(PB)>
-59.821

> <W(SA)>
1.855

> <Valence>
5.347

> <Coulomb>
45.870

> <VdW>
0.325

> <VdW6>
-6.161

> <VdW12>
6.486

> <Bond>
0.201

> <Angle>
1.485

> <Pdih>
3.662

> <Idih>
0.000

> <Tether>
0.000

$$$$
VeraChem MOL file


 20 19  0  0  0  0  0  0  0  0999 V2000     
   21.6801   18.5871   19.6888 N   0  3  0  0  0  0  0  0  0  0  0  0
   22.0378   19.5353   19.5361 H   0  0  0  0  0  0  0  0  0  0  0  0
   22.3927   17.9402   19.3349 H   0  0  0  0  0  0  0  0  0  0  0  0
   20.8552   18.4764   19.0908 H   0  0  0  0  0  0  0  0  0  0  0  0
   21.3610   18.3299   21.1478 C   0  0  0  0  0  0  0  0  0  0  0  0
   22.2871   18.4350   21.7195 H   0  0  0  0  0  0  0  0  0  0  0  0
   21.0156   17.2967   21.2407 H   0  0  0  0  0  0  0  0  0  0  0  0
   20.2936   19.2853   21.7110 C   0  0  0  0  0  0  0  0  0  0  0  0
   20.6376   20.3224   21.6011 H   0  0  0  0  0  0  0  0  0  0  0  0
   19.3705   19.1881   21.1240 H   0  0  0  0  0  0  0  0  0  0  0  0
   19.9979   18.9900   23.1984 C   0  0  0  0  0  0  0  0  0  0  0  0
   20.9246   19.0830   23.7818 H   0  0  0  0  0  0  0  0  0  0  0  0
   19.6589   17.9501   23.3053 H   0  0  0  0  0  0  0  0  0  0  0  0
   18.9274   19.9435   23.7748 C   0  0  0  0  0  0  0  0  0  0  0  0
   19.2634   20.9849   23.6717 H   0  0  0  0  0  0  0  0  0  0  0  0
   17.9979   19.8520   23.1953 H   0  0  0  0  0  0  0  0  0  0  0  0
   18.6353   19.6448   25.2609 C   0  0  0  0  0  0  0  0  0  0  0  0
   19.5395   19.7617   25.8724 H   0  0  0  0  0  0  0  0  0  0  0  0
   17.8734   20.3316   25.6519 H   0  0  0  0  0  0  0  0  0  0  0  0
   18.2640   18.6201   25.3923 H   0  0  0  0  0  0  0  0  0  0  0  0
  1  2  1  0  0  0  0
  1  3  1  0  0  0  0
  1  4  1  0  0  0  0
  1  5  1  0  0  0  0
  5  6  1  0  0  0  0
  5  7  1  0  0  0  0
  5  8  1  0  0  0  0
  8  9  1  0  0  0  0
  8 10  1  0  0  0  0
  8 11  1  0  0  0  0
 11 12  1  0  0  0  0
 11 13  1  0  0  0  0
 11 14  1  0  0  0  0
 14 15  1  0  0  0  0
 14 16  1  0  0  0  0
 14 17  1  0  0  0  0
 17 18  1  0  0  0  0
 17 19  1  0  0  0  0
 17 20  1  0  0  0  0
M  END
> <VConfSearch Rank>
497

> <Conf_Id>
72

> <Delta U+W>
0.000

> <U+W>
-11.778

> <U>
45.772

> <W>
-57.550

> <W(PB)>
-59.511

> <W(SA)>
1.961

> <Valence>
1.299

> <Coulomb>
44.177

> <VdW>
0.297

> <VdW6>
-3.490

> <VdW12>
3.786

> <Bond>
0.096

> <Angle>
0.381

> <Pdih>
0.822

> <Idih>
0.000

> <Tether>
0.000

$$$$
VeraChem MOL file


 20 19  0  0  0  0  0  0  0  0999 V2000     
   18.6182   16.5915   22.8458 N   0  3  0  0  0  0  0  0  0  0  0  0
   18.7517   16.3484   21.8592 H   0  0  0  0  0  0  0  0  0  0  0  0
   19.3396   16.0954   23.3786 H   0  0  0  0  0  0  0  0  0  0  0  0
   17.7152   16.1969   23.1295 H   0  0  0  0  0  0  0  0  0  0  0  0
   18.6748   18.0886   23.0734 C   0  0  0  0  0  0  0  0  0  0  0  0
   18.4949   18.2754   24.1356 H   0  0  0  0  0  0  0  0  0  0  0  0
   17.8636   18.5479   22.5020 H   0  0  0  0  0  0  0  0  0  0  0  0
   20.0188   18.7136   22.6581 C   0  0  0  0  0  0  0  0  0  0  0  0
   20.8320   18.2384   23.2227 H   0  0  0  0  0  0  0  0  0  0  0  0
   20.1972   18.5048   21.5957 H   0  0  0  0  0  0  0  0  0  0  0  0
   20.0327   20.2399   22.9097 C   0  0  0  0  0  0  0  0  0  0  0  0
   19.7769   20.4315   23.9612 H   0  0  0  0  0  0  0  0  0  0  0  0
   19.2484   20.7212   22.3090 H   0  0  0  0  0  0  0  0  0  0  0  0
   21.3979   20.9038   22.6062 C   0  0  0  0  0  0  0  0  0  0  0  0
   21.3519   21.9592   22.9094 H   0  0  0  0  0  0  0  0  0  0  0  0
   22.1815   20.4415   23.2227 H   0  0  0  0  0  0  0  0  0  0  0  0
   21.7990   20.8311   21.1151 C   0  0  0  0  0  0  0  0  0  0  0  0
   21.0187   21.2619   20.4745 H   0  0  0  0  0  0  0  0  0  0  0  0
   22.7254   21.3930   20.9388 H   0  0  0  0  0  0  0  0  0  0  0  0
   21.9755   19.7969   20.7946 H   0  0  0  0  0  0  0  0  0  0  0  0
  1  2  1  0  0  0  0
  1  3  1  0  0  0  0
  1  4  1  0  0  0  0
  1  5  1  0  0  0  0
  5  6  1  0  0  0  0
  5  7  1  0  0  0  0
  5  8  1  0  0  0  0
  8  9  1  0  0  0  0
  8 10  1  0  0  0  0
  8 11  1  0  0  0  0
 11 12  1  0  0  0  0
 11 13  1  0  0  0  0
 11 14  1  0  0  0  0
 14 15  1  0  0  0  0
 14 16  1  0  0  0  0
 14 17  1  0  0  0  0
 17 18  1  0  0  0  0
 17 19  1  0  0  0  0
 17 20  1  0  0  0  0
M  END
> <VConfSearch Rank>
498

> <Conf_Id>
42

> <Delta U+W>
0.508

> <U+W>
-11.270

> <U>
46.486

> <W>
-57.756

> <W(PB)>
-59.705

> <W(SA)>
1.949

> <Valence>
1.806

> <Coulomb>
44.248

> <VdW>
0.433

> <VdW6>
-4.089

> <VdW12>
4.522

> <Bond>
0.131

> <Angle>
0.628

> <Pdih>
1.047

> <Idih>
0.000

> <Tether>
0.000

$$$$
VeraChem MOL file


 20 19  0  0  0  0  0  0  0  0999 V2000     
   18.2496   17.1256   23.7691 N   0  3  0  0  0  0  0  0  0  0  0  0
   17.3938   17.4548   23.3115 H   0  0  0  0  0  0  0  0  0  0  0  0
   18.6146   16.3518   23.2049 H   0  0  0  0  0  0  0  0  0  0  0  0
   17.9698   16.7286   24.6723 H   0  0  0  0  0  0  0  0  0  0  0  0
   19.2674   18.2363   23.9335 C   0  0  0  0  0  0  0  0  0  0  0  0
   20.1368   17.8235   24.4525 H   0  0  0  0  0  0  0  0  0  0  0  0
   18.8241   19.0089   24.5677 H   0  0  0  0  0  0  0  0  0  0  0  0
   19.7091   18.8554   22.5953 C   0  0  0  0  0  0  0  0  0  0  0  0
   20.1357   18.0684   21.9607 H   0  0  0  0  0  0  0  0  0  0  0  0
   18.8310   19.2544   22.0704 H   0  0  0  0  0  0  0  0  0  0  0  0
   20.7446   19.9843   22.8107 C   0  0  0  0  0  0  0  0  0  0  0  0
   21.6426   19.5755   23.2945 H   0  0  0  0  0  0  0  0  0  0  0  0
   20.3278   20.7237   23.5088 H   0  0  0  0  0  0  0  0  0  0  0  0
   21.1462   20.7119   21.5046 C   0  0  0  0  0  0  0  0  0  0  0  0
   20.2538   21.1430   21.0296 H   0  0  0  0  0  0  0  0  0  0  0  0
   21.7979   21.5595   21.7592 H   0  0  0  0  0  0  0  0  0  0  0  0
   21.8839   19.8022   20.4958 C   0  0  0  0  0  0  0  0  0  0  0  0
   21.2309   19.0058   20.1180 H   0  0  0  0  0  0  0  0  0  0  0  0
   22.2256   20.3856   19.6310 H   0  0  0  0  0  0  0  0  0  0  0  0
   22.7653   19.3361   20.9550 H   0  0  0  0  0  0  0  0  0  0  0  0
  1  2  1  0  0  0  0
  1  3  1  0  0  0  0
  1  4  1  0  0  0  0
  1  5  1  0  0  0  0
  5  6  1  0  0  0  0
  5  7  1  0  0  0  0
  5  8  1  0  0  0  0
  8  9  1  0  0  0  0
  8 10  1  0  0  0  0
  8 11  1  0  0  0  0
 11 12  1  0  0  0  0
 11 13  1  0  0  0  0
 11 14  1  0  0  0  0
 14 15  1  0  0  0  0
 14 16  1  0  0  0  0
 14 17  1  0  0  0  0
 17 18  1  0  0  0  0
 17 19  1  0  0  0  0
 17 20  1  0  0  0  0
M  END
> <VConfSearch Rank>
499

> <Conf_Id>
41

> <Delta U+W>
0.515

> <U+W>
-11.263

> <U>
46.486

> <W>
-57.749

> <W(PB)>
-59.685

> <W(SA)>
1.936

> <Valence>
1.806

> <Coulomb>
44.248

> <VdW>
0.433

> <VdW6>
-4.089

> <VdW12>
4.522

> <Bond>
0.131

> <Angle>
0.628

> <Pdih>
1.047

> <Idih>
0.000

> <Tether>
0.000

$$$$
VeraChem MOL file


 20 19  0  0  0  0  0  0  0  0999 V2000     
   20.0774   21.8197   23.0945 N   0  3  0  0  0  0  0  0  0  0  0  0
   20.2786   22.8022   22.8806 H   0  0  0  0  0  0  0  0  0  0  0  0
   19.1179   21.6379   22.7859 H   0  0  0  0  0  0  0  0  0  0  0  0
   20.0898   21.7287   24.1151 H   0  0  0  0  0  0  0  0  0  0  0  0
   21.0710   20.8848   22.4319 C   0  0  0  0  0  0  0  0  0  0  0  0
   22.0700   21.1675   22.7750 H   0  0  0  0  0  0  0  0  0  0  0  0
   21.0239   21.0484   21.3519 H   0  0  0  0  0  0  0  0  0  0  0  0
   20.8290   19.3944   22.7418 C   0  0  0  0  0  0  0  0  0  0  0  0
   21.6624   18.8209   22.3174 H   0  0  0  0  0  0  0  0  0  0  0  0
   20.8596   19.2364   23.8280 H   0  0  0  0  0  0  0  0  0  0  0  0
   19.4879   18.8735   22.1661 C   0  0  0  0  0  0  0  0  0  0  0  0
   19.4739   19.0141   21.0764 H   0  0  0  0  0  0  0  0  0  0  0  0
   18.6605   19.4746   22.5658 H   0  0  0  0  0  0  0  0  0  0  0  0
   19.2100   17.3873   22.4990 C   0  0  0  0  0  0  0  0  0  0  0  0
   19.2094   17.2440   23.5887 H   0  0  0  0  0  0  0  0  0  0  0  0
   18.1973   17.1331   22.1559 H   0  0  0  0  0  0  0  0  0  0  0  0
   20.2150   16.4106   21.8464 C   0  0  0  0  0  0  0  0  0  0  0  0
   21.2262   16.5410   22.2510 H   0  0  0  0  0  0  0  0  0  0  0  0
   19.9172   15.3710   22.0345 H   0  0  0  0  0  0  0  0  0  0  0  0
   20.2576   16.5554   20.7591 H   0  0  0  0  0  0  0  0  0  0  0  0
  1  2  1  0  0  0  0
  1  3  1  0  0  0  0
  1  4  1  0  0  0  0
  1  5  1  0  0  0  0
  5  6  1  0  0  0  0
  5  7  1  0  0  0  0
  5  8  1  0  0  0  0
  8  9  1  0  0  0  0
  8 10  1  0  0  0  0
  8 11  1  0  0  0  0
 11 12  1  0  0  0  0
 11 13  1  0  0  0  0
 11 14  1  0  0  0  0
 14 15  1  0  0  0  0
 14 16  1  0  0  0  0
 14 17  1  0  0  0  0
 17 18  1  0  0  0  0
 17 19  1  0  0  0  0
 17 20  1  0  0  0  0
M  END
> <VConfSearch Rank>
500

> <Conf_Id>
33

> <Delta U+W>
0.703

> <U+W>
-11.075

> <U>
47.080

> <W>
-58.154

> <W(PB)>
-60.053

> <W(SA)>
1.899

> <Valence>
1.943

> <Coulomb>
44.572

> <VdW>
0.565

> <VdW6>
-4.575

> <VdW12>
5.139

> <Bond>
0.158

> <Angle>
0.700

> <Pdih>
1.085

> <Idih>
0.000

> <Tether>
0.000

$$$$
VeraChem MOL file


 20 19  0  0  0  0  0  0  0  0999 V2000     
   18.2551   18.6882   24.4329 N   0  3  0  0  0  0  0  0  0  0  0  0
   17.7212   18.0664   25.0493 H   0  0  0  0  0  0  0  0  0  0  0  0
   18.3438   19.5856   24.9197 H   0  0  0  0  0  0  0  0  0  0  0  0
   17.6790   18.8503   23.6017 H   0  0  0  0  0  0  0  0  0  0  0  0
   19.6080   18.1021   24.0775 C   0  0  0  0  0  0  0  0  0  0  0  0
   19.4430   17.1402   23.5846 H   0  0  0  0  0  0  0  0  0  0  0  0
   20.1438   17.9171   25.0125 H   0  0  0  0  0  0  0  0  0  0  0  0
   20.4633   19.0093   23.1713 C   0  0  0  0  0  0  0  0  0  0  0  0
   20.6127   19.9805   23.6613 H   0  0  0  0  0  0  0  0  0  0  0  0
   21.4554   18.5511   23.0735 H   0  0  0  0  0  0  0  0  0  0  0  0
   19.8394   19.2122   21.7675 C   0  0  0  0  0  0  0  0  0  0  0  0
   18.8325   19.6370   21.8730 H   0  0  0  0  0  0  0  0  0  0  0  0
   19.7139   18.2382   21.2744 H   0  0  0  0  0  0  0  0  0  0  0  0
   20.6665   20.1505   20.8551 C   0  0  0  0  0  0  0  0  0  0  0  0
   20.1010   20.3300   19.9299 H   0  0  0  0  0  0  0  0  0  0  0  0
   20.7833   21.1308   21.3380 H   0  0  0  0  0  0  0  0  0  0  0  0
   22.0564   19.5837   20.4854 C   0  0  0  0  0  0  0  0  0  0  0  0
   21.9691   18.5892   20.0290 H   0  0  0  0  0  0  0  0  0  0  0  0
   22.5591   20.2405   19.7637 H   0  0  0  0  0  0  0  0  0  0  0  0
   22.7070   19.5031   21.3649 H   0  0  0  0  0  0  0  0  0  0  0  0
  1  2  1  0  0  0  0
  1  3  1  0  0  0  0
  1  4  1  0  0  0  0
  1  5  1  0  0  0  0
  5  6  1  0  0  0  0
  5  7  1  0  0  0  0
  5  8  1  0  0  0  0
  8  9  1  0  0  0  0
  8 10  1  0  0  0  0
  8 11  1  0  0  0  0
 11 12  1  0  0  0  0
 11 13  1  0  0  0  0
 11 14  1  0  0  0  0
 14 15  1  0  0  0  0
 14 16  1  0  0  0  0
 14 17  1  0  0  0  0
 17 18  1  0  0  0  0
 17 19  1  0  0  0  0
 17 20  1  0  0  0  0
M  END
> <VConfSearch Rank>
501

> <Conf_Id>
24

> <Delta U+W>
0.847

> <U+W>
-10.931

> <U>
47.080

> <W>
-58.011

> <W(PB)>
-59.914

> <W(SA)>
1.903

> <Valence>
1.943

> <Coulomb>
44.572

> <VdW>
0.565

> <VdW6>
-4.575

> <VdW12>
5.140

> <Bond>
0.158

> <Angle>
0.700

> <Pdih>
1.085

> <Idih>
0.000

> <Tether>
0.000

$$$$
VeraChem MOL file


 20 19  0  0  0  0  0  0  0  0999 V2000     
   20.4884   21.8493   21.8283 N   0  3  0  0  0  0  0  0  0  0  0  0
   20.6433   22.6333   22.4709 H   0  0  0  0  0  0  0  0  0  0  0  0
   21.3901   21.6446   21.3864 H   0  0  0  0  0  0  0  0  0  0  0  0
   19.8620   22.1886   21.0916 H   0  0  0  0  0  0  0  0  0  0  0  0
   19.9197   20.6397   22.5423 C   0  0  0  0  0  0  0  0  0  0  0  0
   18.9782   20.9363   23.0123 H   0  0  0  0  0  0  0  0  0  0  0  0
   20.6221   20.3535   23.3295 H   0  0  0  0  0  0  0  0  0  0  0  0
   19.6757   19.4426   21.6042 C   0  0  0  0  0  0  0  0  0  0  0  0
   19.0021   19.7526   20.7943 H   0  0  0  0  0  0  0  0  0  0  0  0
   20.6185   19.1498   21.1249 H   0  0  0  0  0  0  0  0  0  0  0  0
   19.0523   18.2265   22.3341 C   0  0  0  0  0  0  0  0  0  0  0  0
   18.8947   17.4174   21.6075 H   0  0  0  0  0  0  0  0  0  0  0  0
   18.0535   18.5033   22.6991 H   0  0  0  0  0  0  0  0  0  0  0  0
   19.8854   17.6842   23.5237 C   0  0  0  0  0  0  0  0  0  0  0  0
   19.9647   18.4468   24.3105 H   0  0  0  0  0  0  0  0  0  0  0  0
   19.3436   16.8413   23.9752 H   0  0  0  0  0  0  0  0  0  0  0  0
   21.2985   17.2074   23.1177 C   0  0  0  0  0  0  0  0  0  0  0  0
   21.8102   16.7488   23.9737 H   0  0  0  0  0  0  0  0  0  0  0  0
   21.2476   16.4586   22.3167 H   0  0  0  0  0  0  0  0  0  0  0  0
   21.9206   18.0416   22.7701 H   0  0  0  0  0  0  0  0  0  0  0  0
  1  2  1  0  0  0  0
  1  3  1  0  0  0  0
  1  4  1  0  0  0  0
  1  5  1  0  0  0  0
  5  6  1  0  0  0  0
  5  7  1  0  0  0  0
  5  8  1  0  0  0  0
  8  9  1  0  0  0  0
  8 10  1  0  0  0  0
  8 11  1  0  0  0  0
 11 12  1  0  0  0  0
 11 13  1  0  0  0  0
 11 14  1  0  0  0  0
 14 15  1  0  0  0  0
 14 16  1  0  0  0  0
 14 17  1  0  0  0  0
 17 18  1  0  0  0  0
 17 19  1  0  0  0  0
 17 20  1  0  0  0  0
M  END
> <VConfSearch Rank>
502

> <Conf_Id>
64

> <Delta U+W>
0.707

> <U+W>
-11.070

> <U>
47.077

> <W>
-58.148

> <W(PB)>
-60.054

> <W(SA)>
1.906

> <Valence>
2.039

> <Coulomb>
44.655

> <VdW>
0.383

> <VdW6>
-4.912

> <VdW12>
5.295

> <Bond>
0.159

> <Angle>
0.856

> <Pdih>
1.024

> <Idih>
0.000

> <Tether>
0.000

$$$$
VeraChem MOL file


 20 19  0  0  0  0  0  0  0  0999 V2000     
   18.7997   17.7279   24.4385 N   0  3  0  0  0  0  0  0  0  0  0  0
   18.9529   18.0820   25.3879 H   0  0  0  0  0  0  0  0  0  0  0  0
   17.9135   18.1233   24.1089 H   0  0  0  0  0  0  0  0  0  0  0  0
   18.6622   16.7149   24.5179 H   0  0  0  0  0  0  0  0  0  0  0  0
   19.9510   18.0693   23.5142 C   0  0  0  0  0  0  0  0  0  0  0  0
   19.7343   17.6367   22.5340 H   0  0  0  0  0  0  0  0  0  0  0  0
   20.8533   17.5938   23.9082 H   0  0  0  0  0  0  0  0  0  0  0  0
   20.1842   19.5852   23.3724 C   0  0  0  0  0  0  0  0  0  0  0  0
   19.2760   20.0648   22.9856 H   0  0  0  0  0  0  0  0  0  0  0  0
   20.3597   20.0160   24.3671 H   0  0  0  0  0  0  0  0  0  0  0  0
   21.3910   19.9235   22.4618 C   0  0  0  0  0  0  0  0  0  0  0  0
   22.3091   19.5425   22.9303 H   0  0  0  0  0  0  0  0  0  0  0  0
   21.5068   21.0151   22.4146 H   0  0  0  0  0  0  0  0  0  0  0  0
   21.2965   19.3611   21.0202 C   0  0  0  0  0  0  0  0  0  0  0  0
   22.2073   19.6435   20.4738 H   0  0  0  0  0  0  0  0  0  0  0  0
   21.2866   18.2628   21.0411 H   0  0  0  0  0  0  0  0  0  0  0  0
   20.0670   19.8772   20.2386 C   0  0  0  0  0  0  0  0  0  0  0  0
   20.0424   20.9745   20.2208 H   0  0  0  0  0  0  0  0  0  0  0  0
   20.0967   19.5254   19.1993 H   0  0  0  0  0  0  0  0  0  0  0  0
   19.1291   19.5190   20.6810 H   0  0  0  0  0  0  0  0  0  0  0  0
  1  2  1  0  0  0  0
  1  3  1  0  0  0  0
  1  4  1  0  0  0  0
  1  5  1  0  0  0  0
  5  6  1  0  0  0  0
  5  7  1  0  0  0  0
  5  8  1  0  0  0  0
  8  9  1  0  0  0  0
  8 10  1  0  0  0  0
  8 11  1  0  0  0  0
 11 12  1  0  0  0  0
 11 13  1  0  0  0  0
 11 14  1  0  0  0  0
 14 15  1  0  0  0  0
 14 16  1  0  0  0  0
 14 17  1  0  0  0  0
 17 18  1  0  0  0  0
 17 19  1  0  0  0  0
 17 20  1  0  0  0  0
M  END
> <VConfSearch Rank>
503

> <Conf_Id>
22

> <Delta U+W>
0.731

> <U+W>
-11.047

> <U>
47.078

> <W>
-58.125

> <W(PB)>
-60.031

> <W(SA)>
1.906

> <Valence>
2.039

> <Coulomb>
44.655

> <VdW>
0.383

> <VdW6>
-4.913

> <VdW12>
5.296

> <Bond>
0.159

> <Angle>
0.856

> <Pdih>
1.024

> <Idih>
0.000

> <Tether>
0.000

$$$$
VeraChem MOL file


 20 19  0  0  0  0  0  0  0  0999 V2000     
   19.6881   17.7502   24.7801 N   0  3  0  0  0  0  0  0  0  0  0  0
   20.6186   17.7124   25.2081 H   0  0  0  0  0  0  0  0  0  0  0  0
   19.0726   18.2356   25.4402 H   0  0  0  0  0  0  0  0  0  0  0  0
   19.3511   16.7839   24.7153 H   0  0  0  0  0  0  0  0  0  0  0  0
   19.7149   18.4298   23.4259 C   0  0  0  0  0  0  0  0  0  0  0  0
   18.7008   18.4105   23.0175 H   0  0  0  0  0  0  0  0  0  0  0  0
   20.3641   17.8422   22.7728 H   0  0  0  0  0  0  0  0  0  0  0  0
   20.2220   19.8816   23.4884 C   0  0  0  0  0  0  0  0  0  0  0  0
   19.6351   20.4285   24.2383 H   0  0  0  0  0  0  0  0  0  0  0  0
   21.2617   19.8907   23.8416 H   0  0  0  0  0  0  0  0  0  0  0  0
   20.1239   20.6399   22.1404 C   0  0  0  0  0  0  0  0  0  0  0  0
   20.4234   21.6809   22.3251 H   0  0  0  0  0  0  0  0  0  0  0  0
   19.0778   20.6871   21.8074 H   0  0  0  0  0  0  0  0  0  0  0  0
   21.0214   20.0773   21.0076 C   0  0  0  0  0  0  0  0  0  0  0  0
   21.2777   20.9028   20.3287 H   0  0  0  0  0  0  0  0  0  0  0  0
   21.9751   19.7186   21.4194 H   0  0  0  0  0  0  0  0  0  0  0  0
   20.3482   18.9666   20.1675 C   0  0  0  0  0  0  0  0  0  0  0  0
   20.1425   18.0666   20.7563 H   0  0  0  0  0  0  0  0  0  0  0  0
   19.4004   19.3171   19.7385 H   0  0  0  0  0  0  0  0  0  0  0  0
   20.9993   18.6705   19.3348 H   0  0  0  0  0  0  0  0  0  0  0  0
  1  2  1  0  0  0  0
  1  3  1  0  0  0  0
  1  4  1  0  0  0  0
  1  5  1  0  0  0  0
  5  6  1  0  0  0  0
  5  7  1  0  0  0  0
  5  8  1  0  0  0  0
  8  9  1  0  0  0  0
  8 10  1  0  0  0  0
  8 11  1  0  0  0  0
 11 12  1  0  0  0  0
 11 13  1  0  0  0  0
 11 14  1  0  0  0  0
 14 15  1  0  0  0  0
 14 16  1  0  0  0  0
 14 17  1  0  0  0  0
 17 18  1  0  0  0  0
 17 19  1  0  0  0  0
 17 20  1  0  0  0  0
M  END
> <VConfSearch Rank>
504

> <Conf_Id>
61

> <Delta U+W>
2.669

> <U+W>
-9.108

> <U>
48.916

> <W>
-58.025

> <W(PB)>
-59.935

> <W(SA)>
1.911

> <Valence>
3.785

> <Coulomb>
44.716

> <VdW>
0.415

> <VdW6>
-4.836

> <VdW12>
5.251

> <Bond>
0.175

> <Angle>
1.195

> <Pdih>
2.415

> <Idih>
0.000

> <Tether>
0.000

$$$$
VeraChem MOL file


 20 19  0  0  0  0  0  0  0  0999 V2000     
   21.3410   17.5965   21.1184 N   0  3  0  0  0  0  0  0  0  0  0  0
   21.8772   17.4981   20.2498 H   0  0  0  0  0  0  0  0  0  0  0  0
   21.2659   16.6601   21.5282 H   0  0  0  0  0  0  0  0  0  0  0  0
   20.3958   17.8883   20.8568 H   0  0  0  0  0  0  0  0  0  0  0  0
   21.9937   18.5777   22.0734 C   0  0  0  0  0  0  0  0  0  0  0  0
   22.1004   19.5400   21.5655 H   0  0  0  0  0  0  0  0  0  0  0  0
   22.9956   18.1953   22.2865 H   0  0  0  0  0  0  0  0  0  0  0  0
   21.2371   18.7689   23.4047 C   0  0  0  0  0  0  0  0  0  0  0  0
   20.8903   17.7983   23.7835 H   0  0  0  0  0  0  0  0  0  0  0  0
   21.9561   19.1414   24.1464 H   0  0  0  0  0  0  0  0  0  0  0  0
   20.0596   19.7753   23.3385 C   0  0  0  0  0  0  0  0  0  0  0  0
   20.4341   20.7560   23.0138 H   0  0  0  0  0  0  0  0  0  0  0  0
   19.6743   19.9178   24.3576 H   0  0  0  0  0  0  0  0  0  0  0  0
   18.8937   19.3389   22.4205 C   0  0  0  0  0  0  0  0  0  0  0  0
   19.2204   19.3363   21.3731 H   0  0  0  0  0  0  0  0  0  0  0  0
   18.5849   18.3141   22.6701 H   0  0  0  0  0  0  0  0  0  0  0  0
   17.6805   20.2840   22.5545 C   0  0  0  0  0  0  0  0  0  0  0  0
   16.8663   19.9664   21.8902 H   0  0  0  0  0  0  0  0  0  0  0  0
   17.2935   20.2880   23.5819 H   0  0  0  0  0  0  0  0  0  0  0  0
   17.9509   21.3138   22.2871 H   0  0  0  0  0  0  0  0  0  0  0  0
  1  2  1  0  0  0  0
  1  3  1  0  0  0  0
  1  4  1  0  0  0  0
  1  5  1  0  0  0  0
  5  6  1  0  0  0  0
  5  7  1  0  0  0  0
  5  8  1  0  0  0  0
  8  9  1  0  0  0  0
  8 10  1  0  0  0  0
  8 11  1  0  0  0  0
 11 12  1  0  0  0  0
 11 13  1  0  0  0  0
 11 14  1  0  0  0  0
 14 15  1  0  0  0  0
 14 16  1  0  0  0  0
 14 17  1  0  0  0  0
 17 18  1  0  0  0  0
 17 19  1  0  0  0  0
 17 20  1  0  0  0  0
M  END
> <VConfSearch Rank>
505

> <Conf_Id>
69

> <Delta U+W>
2.811

> <U+W>
-8.967

> <U>
49.216

> <W>
-58.183

> <W(PB)>
-60.064

> <W(SA)>
1.881

> <Valence>
2.929

> <Coulomb>
46.006

> <VdW>
0.281

> <VdW6>
-4.909

> <VdW12>
5.190

> <Bond>
0.156

> <Angle>
0.974

> <Pdih>
1.799

> <Idih>
0.000

> <Tether>
0.000

$$$$
VeraChem MOL file


 20 19  0  0  0  0  0  0  0  0999 V2000     
   20.4742   18.0460   24.3875 N   0  3  0  0  0  0  0  0  0  0  0  0
   20.9361   17.7727   23.5163 H   0  0  0  0  0  0  0  0  0  0  0  0
   21.1530   18.5860   24.9334 H   0  0  0  0  0  0  0  0  0  0  0  0
   20.2887   17.1851   24.9130 H   0  0  0  0  0  0  0  0  0  0  0  0
   19.2032   18.8335   24.1328 C   0  0  0  0  0  0  0  0  0  0  0  0
   18.7744   19.0699   25.1105 H   0  0  0  0  0  0  0  0  0  0  0  0
   18.4962   18.1919   23.6001 H   0  0  0  0  0  0  0  0  0  0  0  0
   19.4141   20.1455   23.3481 C   0  0  0  0  0  0  0  0  0  0  0  0
   18.5652   20.8063   23.5689 H   0  0  0  0  0  0  0  0  0  0  0  0
   20.3058   20.6674   23.7198 H   0  0  0  0  0  0  0  0  0  0  0  0
   19.4918   19.9712   21.8095 C   0  0  0  0  0  0  0  0  0  0  0  0
   19.5246   20.9705   21.3537 H   0  0  0  0  0  0  0  0  0  0  0  0
   18.5672   19.5007   21.4472 H   0  0  0  0  0  0  0  0  0  0  0  0
   20.7117   19.1577   21.3170 C   0  0  0  0  0  0  0  0  0  0  0  0
   21.6329   19.5584   21.7628 H   0  0  0  0  0  0  0  0  0  0  0  0
   20.6208   18.1123   21.6374 H   0  0  0  0  0  0  0  0  0  0  0  0
   20.8334   19.1911   19.7784 C   0  0  0  0  0  0  0  0  0  0  0  0
   20.9666   20.2182   19.4142 H   0  0  0  0  0  0  0  0  0  0  0  0
   21.6974   18.6019   19.4448 H   0  0  0  0  0  0  0  0  0  0  0  0
   19.9368   18.7732   19.3023 H   0  0  0  0  0  0  0  0  0  0  0  0
  1  2  1  0  0  0  0
  1  3  1  0  0  0  0
  1  4  1  0  0  0  0
  1  5  1  0  0  0  0
  5  6  1  0  0  0  0
  5  7  1  0  0  0  0
  5  8  1  0  0  0  0
  8  9  1  0  0  0  0
  8 10  1  0  0  0  0
  8 11  1  0  0  0  0
 11 12  1  0  0  0  0
 11 13  1  0  0  0  0
 11 14  1  0  0  0  0
 14 15  1  0  0  0  0
 14 16  1  0  0  0  0
 14 17  1  0  0  0  0
 17 18  1  0  0  0  0
 17 19  1  0  0  0  0
 17 20  1  0  0  0  0
M  END
> <VConfSearch Rank>
506

> <Conf_Id>
26

> <Delta U+W>
2.809

> <U+W>
-8.969

> <U>
49.216

> <W>
-58.185

> <W(PB)>
-60.088

> <W(SA)>
1.903

> <Valence>
2.929

> <Coulomb>
46.006

> <VdW>
0.281

> <VdW6>
-4.909

> <VdW12>
5.190

> <Bond>
0.156

> <Angle>
0.974

> <Pdih>
1.799

> <Idih>
0.000

> <Tether>
0.000

$$$$
VeraChem MOL file


 20 19  0  0  0  0  0  0  0  0999 V2000     
   18.9062   18.9950   24.5431 N   0  3  0  0  0  0  0  0  0  0  0  0
   19.4655   18.1422   24.4486 H   0  0  0  0  0  0  0  0  0  0  0  0
   19.2738   19.5104   25.3488 H   0  0  0  0  0  0  0  0  0  0  0  0
   17.9530   18.7042   24.7845 H   0  0  0  0  0  0  0  0  0  0  0  0
   18.9376   19.8297   23.2777 C   0  0  0  0  0  0  0  0  0  0  0  0
   18.2987   20.7023   23.4384 H   0  0  0  0  0  0  0  0  0  0  0  0
   18.5040   19.2366   22.4683 H   0  0  0  0  0  0  0  0  0  0  0  0
   20.3520   20.2976   22.8791 C   0  0  0  0  0  0  0  0  0  0  0  0
   20.2736   20.9543   22.0032 H   0  0  0  0  0  0  0  0  0  0  0  0
   20.7646   20.9202   23.6839 H   0  0  0  0  0  0  0  0  0  0  0  0
   21.3371   19.1384   22.5743 C   0  0  0  0  0  0  0  0  0  0  0  0
   21.5387   18.5803   23.4984 H   0  0  0  0  0  0  0  0  0  0  0  0
   22.3023   19.5658   22.2693 H   0  0  0  0  0  0  0  0  0  0  0  0
   20.8571   18.1470   21.4836 C   0  0  0  0  0  0  0  0  0  0  0  0
   21.6162   17.3610   21.3656 H   0  0  0  0  0  0  0  0  0  0  0  0
   19.9419   17.6353   21.8107 H   0  0  0  0  0  0  0  0  0  0  0  0
   20.6156   18.8154   20.1110 C   0  0  0  0  0  0  0  0  0  0  0  0
   21.5118   19.3486   19.7685 H   0  0  0  0  0  0  0  0  0  0  0  0
   20.3647   18.0606   19.3546 H   0  0  0  0  0  0  0  0  0  0  0  0
   19.7845   19.5303   20.1519 H   0  0  0  0  0  0  0  0  0  0  0  0
  1  2  1  0  0  0  0
  1  3  1  0  0  0  0
  1  4  1  0  0  0  0
  1  5  1  0  0  0  0
  5  6  1  0  0  0  0
  5  7  1  0  0  0  0
  5  8  1  0  0  0  0
  8  9  1  0  0  0  0
  8 10  1  0  0  0  0
  8 11  1  0  0  0  0
 11 12  1  0  0  0  0
 11 13  1  0  0  0  0
 11 14  1  0  0  0  0
 14 15  1  0  0  0  0
 14 16  1  0  0  0  0
 14 17  1  0  0  0  0
 17 18  1  0  0  0  0
 17 19  1  0  0  0  0
 17 20  1  0  0  0  0
M  END
> <VConfSearch Rank>
507

> <Conf_Id>
2

> <Delta U+W>
0.994

> <U+W>
-10.784

> <U>
47.562

> <W>
-58.346

> <W(PB)>
-60.221

> <W(SA)>
1.875

> <Valence>
2.149

> <Coulomb>
45.034

> <VdW>
0.378

> <VdW6>
-5.599

> <VdW12>
5.977

> <Bond>
0.185

> <Angle>
0.935

> <Pdih>
1.028

> <Idih>
0.000

> <Tether>
0.000

$$$$
VeraChem MOL file


 20 19  0  0  0  0  0  0  0  0999 V2000     
   20.0216   17.2336   20.9097 N   0  3  0  0  0  0  0  0  0  0  0  0
   19.0877   16.9787   20.5737 H   0  0  0  0  0  0  0  0  0  0  0  0
   20.3226   18.0531   20.3742 H   0  0  0  0  0  0  0  0  0  0  0  0
   20.6497   16.4630   20.6585 H   0  0  0  0  0  0  0  0  0  0  0  0
   20.0297   17.5042   22.4015 C   0  0  0  0  0  0  0  0  0  0  0  0
   21.0555   17.7366   22.6993 H   0  0  0  0  0  0  0  0  0  0  0  0
   19.7298   16.5832   22.9087 H   0  0  0  0  0  0  0  0  0  0  0  0
   19.0920   18.6519   22.8281 C   0  0  0  0  0  0  0  0  0  0  0  0
   18.0605   18.3934   22.5550 H   0  0  0  0  0  0  0  0  0  0  0  0
   19.1015   18.7280   23.9230 H   0  0  0  0  0  0  0  0  0  0  0  0
   19.4552   20.0266   22.2075 C   0  0  0  0  0  0  0  0  0  0  0  0
   18.7579   20.7835   22.5923 H   0  0  0  0  0  0  0  0  0  0  0  0
   19.2861   19.9918   21.1228 H   0  0  0  0  0  0  0  0  0  0  0  0
   20.9080   20.4971   22.4742 C   0  0  0  0  0  0  0  0  0  0  0  0
   21.6234   19.8030   22.0128 H   0  0  0  0  0  0  0  0  0  0  0  0
   21.0608   21.4639   21.9744 H   0  0  0  0  0  0  0  0  0  0  0  0
   21.2347   20.6565   23.9764 C   0  0  0  0  0  0  0  0  0  0  0  0
   21.2070   19.6923   24.4991 H   0  0  0  0  0  0  0  0  0  0  0  0
   22.2408   21.0749   24.1089 H   0  0  0  0  0  0  0  0  0  0  0  0
   20.5227   21.3338   24.4656 H   0  0  0  0  0  0  0  0  0  0  0  0
  1  2  1  0  0  0  0
  1  3  1  0  0  0  0
  1  4  1  0  0  0  0
  1  5  1  0  0  0  0
  5  6  1  0  0  0  0
  5  7  1  0  0  0  0
  5  8  1  0  0  0  0
  8  9  1  0  0  0  0
  8 10  1  0  0  0  0
  8 11  1  0  0  0  0
 11 12  1  0  0  0  0
 11 13  1  0  0  0  0
 11 14  1  0  0  0  0
 14 15  1  0  0  0  0
 14 16  1  0  0  0  0
 14 17  1  0  0  0  0
 17 18  1  0  0  0  0
 17 19  1  0  0  0  0
 17 20  1  0  0  0  0
M  END
> <VConfSearch Rank>
508

> <Conf_Id>
1

> <Delta U+W>
1.032

> <U+W>
-10.746

> <U>
47.562

> <W>
-58.308

> <W(PB)>
-60.184

> <W(SA)>
1.877

> <Valence>
2.149

> <Coulomb>
45.035

> <VdW>
0.378

> <VdW6>
-5.599

> <VdW12>
5.978

> <Bond>
0.185

> <Angle>
0.935

> <Pdih>
1.028

> <Idih>
0.000

> <Tether>
0.000

$$$$
VeraChem MOL file


 20 19  0  0  0  0  0  0  0  0999 V2000     
   21.9592   20.6895   22.5938 N   0  3  0  0  0  0  0  0  0  0  0  0
   21.7225   21.6854   22.5447 H   0  0  0  0  0  0  0  0  0  0  0  0
   21.7541   20.3762   23.5469 H   0  0  0  0  0  0  0  0  0  0  0  0
   22.9742   20.6179   22.4670 H   0  0  0  0  0  0  0  0  0  0  0  0
   21.2040   19.8781   21.5589 C   0  0  0  0  0  0  0  0  0  0  0  0
   21.5254   18.8391   21.6465 H   0  0  0  0  0  0  0  0  0  0  0  0
   21.5058   20.2413   20.5727 H   0  0  0  0  0  0  0  0  0  0  0  0
   19.6690   19.9784   21.6867 C   0  0  0  0  0  0  0  0  0  0  0  0
   19.3889   21.0369   21.6034 H   0  0  0  0  0  0  0  0  0  0  0  0
   19.1992   19.4753   20.8312 H   0  0  0  0  0  0  0  0  0  0  0  0
   19.0885   19.4081   23.0089 C   0  0  0  0  0  0  0  0  0  0  0  0
   18.1152   19.8875   23.1834 H   0  0  0  0  0  0  0  0  0  0  0  0
   19.7138   19.6976   23.8632 H   0  0  0  0  0  0  0  0  0  0  0  0
   18.8572   17.8750   23.0172 C   0  0  0  0  0  0  0  0  0  0  0  0
   18.3619   17.6066   23.9609 H   0  0  0  0  0  0  0  0  0  0  0  0
   18.1538   17.6018   22.2182 H   0  0  0  0  0  0  0  0  0  0  0  0
   20.1429   17.0298   22.8807 C   0  0  0  0  0  0  0  0  0  0  0  0
   20.9123   17.3557   23.5924 H   0  0  0  0  0  0  0  0  0  0  0  0
   19.9276   15.9722   23.0812 H   0  0  0  0  0  0  0  0  0  0  0  0
   20.5537   17.0884   21.8659 H   0  0  0  0  0  0  0  0  0  0  0  0
  1  2  1  0  0  0  0
  1  3  1  0  0  0  0
  1  4  1  0  0  0  0
  1  5  1  0  0  0  0
  5  6  1  0  0  0  0
  5  7  1  0  0  0  0
  5  8  1  0  0  0  0
  8  9  1  0  0  0  0
  8 10  1  0  0  0  0
  8 11  1  0  0  0  0
 11 12  1  0  0  0  0
 11 13  1  0  0  0  0
 11 14  1  0  0  0  0
 14 15  1  0  0  0  0
 14 16  1  0  0  0  0
 14 17  1  0  0  0  0
 17 18  1  0  0  0  0
 17 19  1  0  0  0  0
 17 20  1  0  0  0  0
M  END
> <VConfSearch Rank>
509

> <Conf_Id>
80

> <Delta U+W>
2.920

> <U+W>
-8.857

> <U>
49.434

> <W>
-58.292

> <W(PB)>
-60.170

> <W(SA)>
1.879

> <Valence>
3.798

> <Coulomb>
45.253

> <VdW>
0.384

> <VdW6>
-5.595

> <VdW12>
5.979

> <Bond>
0.198

> <Angle>
1.368

> <Pdih>
2.231

> <Idih>
0.000

> <Tether>
0.000

$$$$
VeraChem MOL file


 20 19  0  0  0  0  0  0  0  0999 V2000     
   18.5100   18.9311   24.0767 N   0  3  0  0  0  0  0  0  0  0  0  0
   17.6872   19.5402   24.0315 H   0  0  0  0  0  0  0  0  0  0  0  0
   18.2832   18.1718   24.7274 H   0  0  0  0  0  0  0  0  0  0  0  0
   19.2659   19.4745   24.5033 H   0  0  0  0  0  0  0  0  0  0  0  0
   18.8976   18.4034   22.7089 C   0  0  0  0  0  0  0  0  0  0  0  0
   18.0619   17.8028   22.3397 H   0  0  0  0  0  0  0  0  0  0  0  0
   19.7562   17.7419   22.8347 H   0  0  0  0  0  0  0  0  0  0  0  0
   19.2178   19.5099   21.6814 C   0  0  0  0  0  0  0  0  0  0  0  0
   19.3597   19.0568   20.6914 H   0  0  0  0  0  0  0  0  0  0  0  0
   18.3351   20.1569   21.5917 H   0  0  0  0  0  0  0  0  0  0  0  0
   20.4494   20.3872   22.0337 C   0  0  0  0  0  0  0  0  0  0  0  0
   20.4547   20.6360   23.1027 H   0  0  0  0  0  0  0  0  0  0  0  0
   20.3391   21.3473   21.5108 H   0  0  0  0  0  0  0  0  0  0  0  0
   21.8200   19.7906   21.6219 C   0  0  0  0  0  0  0  0  0  0  0  0
   21.8439   19.6325   20.5346 H   0  0  0  0  0  0  0  0  0  0  0  0
   22.5984   20.5363   21.8363 H   0  0  0  0  0  0  0  0  0  0  0  0
   22.1908   18.4745   22.3405 C   0  0  0  0  0  0  0  0  0  0  0  0
   21.5785   17.6381   21.9833 H   0  0  0  0  0  0  0  0  0  0  0  0
   23.2389   18.2143   22.1439 H   0  0  0  0  0  0  0  0  0  0  0  0
   22.0662   18.5643   23.4273 H   0  0  0  0  0  0  0  0  0  0  0  0
  1  2  1  0  0  0  0
  1  3  1  0  0  0  0
  1  4  1  0  0  0  0
  1  5  1  0  0  0  0
  5  6  1  0  0  0  0
  5  7  1  0  0  0  0
  5  8  1  0  0  0  0
  8  9  1  0  0  0  0
  8 10  1  0  0  0  0
  8 11  1  0  0  0  0
 11 12  1  0  0  0  0
 11 13  1  0  0  0  0
 11 14  1  0  0  0  0
 14 15  1  0  0  0  0
 14 16  1  0  0  0  0
 14 17  1  0  0  0  0
 17 18  1  0  0  0  0
 17 19  1  0  0  0  0
 17 20  1  0  0  0  0
M  END
> <VConfSearch Rank>
510

> <Conf_Id>
65

> <Delta U+W>
2.949

> <U+W>
-8.829

> <U>
49.435

> <W>
-58.263

> <W(PB)>
-60.125

> <W(SA)>
1.862

> <Valence>
3.797

> <Coulomb>
45.253

> <VdW>
0.384

> <VdW6>
-5.596

> <VdW12>
5.980

> <Bond>
0.198

> <Angle>
1.369

> <Pdih>
2.230

> <Idih>
0.000

> <Tether>
0.000

$$$$
VeraChem MOL file


 20 19  0  0  0  0  0  0  0  0999 V2000     
   19.8311   19.0358   20.5116 N   0  3  0  0  0  0  0  0  0  0  0  0
   20.3861   19.1090   19.6524 H   0  0  0  0  0  0  0  0  0  0  0  0
   20.2419   18.2877   21.0784 H   0  0  0  0  0  0  0  0  0  0  0  0
   18.8930   18.7291   20.2352 H   0  0  0  0  0  0  0  0  0  0  0  0
   19.7927   20.3477   21.2713 C   0  0  0  0  0  0  0  0  0  0  0  0
   19.3428   21.0893   20.6056 H   0  0  0  0  0  0  0  0  0  0  0  0
   20.8187   20.6604   21.4831 H   0  0  0  0  0  0  0  0  0  0  0  0
   18.9815   20.2895   22.5816 C   0  0  0  0  0  0  0  0  0  0  0  0
   18.6652   21.3128   22.8237 H   0  0  0  0  0  0  0  0  0  0  0  0
   18.0557   19.7214   22.4208 H   0  0  0  0  0  0  0  0  0  0  0  0
   19.7478   19.7282   23.8094 C   0  0  0  0  0  0  0  0  0  0  0  0
   19.0747   19.7958   24.6753 H   0  0  0  0  0  0  0  0  0  0  0  0
   20.5998   20.3795   24.0490 H   0  0  0  0  0  0  0  0  0  0  0  0
   20.2214   18.2576   23.6840 C   0  0  0  0  0  0  0  0  0  0  0  0
   20.1428   17.7793   24.6705 H   0  0  0  0  0  0  0  0  0  0  0  0
   19.5474   17.6914   23.0272 H   0  0  0  0  0  0  0  0  0  0  0  0
   21.6897   18.1301   23.2129 C   0  0  0  0  0  0  0  0  0  0  0  0
   21.8719   18.6453   22.2637 H   0  0  0  0  0  0  0  0  0  0  0  0
   22.3724   18.5610   23.9569 H   0  0  0  0  0  0  0  0  0  0  0  0
   21.9646   17.0751   23.0847 H   0  0  0  0  0  0  0  0  0  0  0  0
  1  2  1  0  0  0  0
  1  3  1  0  0  0  0
  1  4  1  0  0  0  0
  1  5  1  0  0  0  0
  5  6  1  0  0  0  0
  5  7  1  0  0  0  0
  5  8  1  0  0  0  0
  8  9  1  0  0  0  0
  8 10  1  0  0  0  0
  8 11  1  0  0  0  0
 11 12  1  0  0  0  0
 11 13  1  0  0  0  0
 11 14  1  0  0  0  0
 14 15  1  0  0  0  0
 14 16  1  0  0  0  0
 14 17  1  0  0  0  0
 17 18  1  0  0  0  0
 17 19  1  0  0  0  0
 17 20  1  0  0  0  0
M  END
> <VConfSearch Rank>
511

> <Conf_Id>
77

> <Delta U+W>
5.366

> <U+W>
-6.412

> <U>
51.542

> <W>
-57.954

> <W(PB)>
-59.811

> <W(SA)>
1.857

> <Valence>
5.347

> <Coulomb>
45.870

> <VdW>
0.325

> <VdW6>
-6.161

> <VdW12>
6.486

> <Bond>
0.201

> <Angle>
1.484

> <Pdih>
3.662

> <Idih>
0.000

> <Tether>
0.000

$$$$
VeraChem MOL file


 20 19  0  0  0  0  0  0  0  0999 V2000     
   20.1180   20.8927   21.8050 N   0  3  0  0  0  0  0  0  0  0  0  0
   19.3454   21.0948   21.1627 H   0  0  0  0  0  0  0  0  0  0  0  0
   19.7053   20.6106   22.6993 H   0  0  0  0  0  0  0  0  0  0  0  0
   20.6142   21.7764   21.9620 H   0  0  0  0  0  0  0  0  0  0  0  0
   21.0384   19.8191   21.2575 C   0  0  0  0  0  0  0  0  0  0  0  0
   21.8765   19.6902   21.9476 H   0  0  0  0  0  0  0  0  0  0  0  0
   21.4345   20.1912   20.3087 H   0  0  0  0  0  0  0  0  0  0  0  0
   20.3451   18.4628   21.0161 C   0  0  0  0  0  0  0  0  0  0  0  0
   19.3593   18.6250   20.5605 H   0  0  0  0  0  0  0  0  0  0  0  0
   20.9334   17.9161   20.2673 H   0  0  0  0  0  0  0  0  0  0  0  0
   20.2131   17.5554   22.2687 C   0  0  0  0  0  0  0  0  0  0  0  0
   21.2106   17.2850   22.6421 H   0  0  0  0  0  0  0  0  0  0  0  0
   19.7562   16.6106   21.9429 H   0  0  0  0  0  0  0  0  0  0  0  0
   19.3521   18.1318   23.4215 C   0  0  0  0  0  0  0  0  0  0  0  0
   18.5796   18.8044   23.0250 H   0  0  0  0  0  0  0  0  0  0  0  0
   18.8070   17.3050   23.8983 H   0  0  0  0  0  0  0  0  0  0  0  0
   20.1918   18.8361   24.5136 C   0  0  0  0  0  0  0  0  0  0  0  0
   19.5397   19.2763   25.2793 H   0  0  0  0  0  0  0  0  0  0  0  0
   20.8521   18.1172   25.0162 H   0  0  0  0  0  0  0  0  0  0  0  0
   20.8237   19.6334   24.1080 H   0  0  0  0  0  0  0  0  0  0  0  0
  1  2  1  0  0  0  0
  1  3  1  0  0  0  0
  1  4  1  0  0  0  0
  1  5  1  0  0  0  0
  5  6  1  0  0  0  0
  5  7  1  0  0  0  0
  5  8  1  0  0  0  0
  8  9  1  0  0  0  0
  8 10  1  0  0  0  0
  8 11  1  0  0  0  0
 11 12  1  0  0  0  0
 11 13  1  0  0  0  0
 11 14  1  0  0  0  0
 14 15  1  0  0  0  0
 14 16  1  0  0  0  0
 14 17  1  0  0  0  0
 17 18  1  0  0  0  0
 17 19  1  0  0  0  0
 17 20  1  0  0  0  0
M  END
> <VConfSearch Rank>
512

> <Conf_Id>
67

> <Delta U+W>
5.353

> <U+W>
-6.425

> <U>
51.541

> <W>
-57.966

> <W(PB)>
-59.821

> <W(SA)>
1.855

> <Valence>
5.347

> <Coulomb>
45.870

> <VdW>
0.325

> <VdW6>
-6.161

> <VdW12>
6.486

> <Bond>
0.201

> <Angle>
1.485

> <Pdih>
3.662

> <Idih>
0.000

> <Tether>
0.000

$$$$
VeraChem MOL file


 20 19  0  0  0  0  0  0  0  0999 V2000     
   18.1492   16.6614   21.9660 N   0  3  0  0  0  0  0  0  0  0  0  0
   18.0451   16.7653   20.9518 H   0  0  0  0  0  0  0  0  0  0  0  0
   18.1285   15.6557   22.1654 H   0  0  0  0  0  0  0  0  0  0  0  0
   17.3127   17.0670   22.3977 H   0  0  0  0  0  0  0  0  0  0  0  0
   19.4207   17.3104   22.4747 C   0  0  0  0  0  0  0  0  0  0  0  0
   20.2685   16.8110   21.9979 H   0  0  0  0  0  0  0  0  0  0  0  0
   19.4811   17.1355   23.5523 H   0  0  0  0  0  0  0  0  0  0  0  0
   19.4836   18.8219   22.1910 C   0  0  0  0  0  0  0  0  0  0  0  0
   19.4066   18.9937   21.1091 H   0  0  0  0  0  0  0  0  0  0  0  0
   18.6219   19.3171   22.6581 H   0  0  0  0  0  0  0  0  0  0  0  0
   20.7933   19.4438   22.7246 C   0  0  0  0  0  0  0  0  0  0  0  0
   21.6535   18.9425   22.2592 H   0  0  0  0  0  0  0  0  0  0  0  0
   20.8697   19.2656   23.8064 H   0  0  0  0  0  0  0  0  0  0  0  0
   20.8676   20.9617   22.4453 C   0  0  0  0  0  0  0  0  0  0  0  0
   20.7937   21.1444   21.3640 H   0  0  0  0  0  0  0  0  0  0  0  0
   20.0101   21.4674   22.9110 H   0  0  0  0  0  0  0  0  0  0  0  0
   22.1778   21.5787   22.9800 C   0  0  0  0  0  0  0  0  0  0  0  0
   23.0540   21.1166   22.5068 H   0  0  0  0  0  0  0  0  0  0  0  0
   22.2120   22.6560   22.7723 H   0  0  0  0  0  0  0  0  0  0  0  0
   22.2642   21.4424   24.0659 H   0  0  0  0  0  0  0  0  0  0  0  0
  1  2  1  0  0  0  0
  1  3  1  0  0  0  0
  1  4  1  0  0  0  0
  1  5  1  0  0  0  0
  5  6  1  0  0  0  0
  5  7  1  0  0  0  0
  5  8  1  0  0  0  0
  8  9  1  0  0  0  0
  8 10  1  0  0  0  0
  8 11  1  0  0  0  0
 11 12  1  0  0  0  0
 11 13  1  0  0  0  0
 11 14  1  0  0  0  0
 14 15  1  0  0  0  0
 14 16  1  0  0  0  0
 14 17  1  0  0  0  0
 17 18  1  0  0  0  0
 17 19  1  0  0  0  0
 17 20  1  0  0  0  0
M  END
> <VConfSearch Rank>
513

> <Conf_Id>
72

> <Delta U+W>
0.000

> <U+W>
-11.778

> <U>
45.772

> <W>
-57.550

> <W(PB)>
-59.511

> <W(SA)>
1.961

> <Valence>
1.299

> <Coulomb>
44.177

> <VdW>
0.297

> <VdW6>
-3.490

> <VdW12>
3.786

> <Bond>
0.096

> <Angle>
0.381

> <Pdih>
0.822

> <Idih>
0.000

> <Tether>
0.000

$$$$
VeraChem MOL file


 20 19  0  0  0  0  0  0  0  0999 V2000     
   21.9916   21.5111   22.3739 N   0  3  0  0  0  0  0  0  0  0  0  0
   21.8991   21.5697   21.3549 H   0  0  0  0  0  0  0  0  0  0  0  0
   21.3630   22.2144   22.7746 H   0  0  0  0  0  0  0  0  0  0  0  0
   22.9478   21.8024   22.6028 H   0  0  0  0  0  0  0  0  0  0  0  0
   21.6881   20.1194   22.8914 C   0  0  0  0  0  0  0  0  0  0  0  0
   21.8358   20.1227   23.9748 H   0  0  0  0  0  0  0  0  0  0  0  0
   22.4114   19.4294   22.4486 H   0  0  0  0  0  0  0  0  0  0  0  0
   20.2587   19.6507   22.5651 C   0  0  0  0  0  0  0  0  0  0  0  0
   19.5361   20.3551   22.9980 H   0  0  0  0  0  0  0  0  0  0  0  0
   20.1162   19.6684   21.4772 H   0  0  0  0  0  0  0  0  0  0  0  0
   19.9926   18.2288   23.1132 C   0  0  0  0  0  0  0  0  0  0  0  0
   20.2143   18.2130   24.1894 H   0  0  0  0  0  0  0  0  0  0  0  0
   20.6856   17.5159   22.6451 H   0  0  0  0  0  0  0  0  0  0  0  0
   18.5359   17.7483   22.9034 C   0  0  0  0  0  0  0  0  0  0  0  0
   18.4069   16.7820   23.4108 H   0  0  0  0  0  0  0  0  0  0  0  0
   17.8404   18.4459   23.3907 H   0  0  0  0  0  0  0  0  0  0  0  0
   18.1507   17.5848   21.4153 C   0  0  0  0  0  0  0  0  0  0  0  0
   18.8482   16.9133   20.8980 H   0  0  0  0  0  0  0  0  0  0  0  0
   17.1439   17.1571   21.3240 H   0  0  0  0  0  0  0  0  0  0  0  0
   18.1476   18.5483   20.8909 H   0  0  0  0  0  0  0  0  0  0  0  0
  1  2  1  0  0  0  0
  1  3  1  0  0  0  0
  1  4  1  0  0  0  0
  1  5  1  0  0  0  0
  5  6  1  0  0  0  0
  5  7  1  0  0  0  0
  5  8  1  0  0  0  0
  8  9  1  0  0  0  0
  8 10  1  0  0  0  0
  8 11  1  0  0  0  0
 11 12  1  0  0  0  0
 11 13  1  0  0  0  0
 11 14  1  0  0  0  0
 14 15  1  0  0  0  0
 14 16  1  0  0  0  0
 14 17  1  0  0  0  0
 17 18  1  0  0  0  0
 17 19  1  0  0  0  0
 17 20  1  0  0  0  0
M  END
> <VConfSearch Rank>
514

> <Conf_Id>
42

> <Delta U+W>
0.508

> <U+W>
-11.270

> <U>
46.486

> <W>
-57.756

> <W(PB)>
-59.705

> <W(SA)>
1.949

> <Valence>
1.806

> <Coulomb>
44.248

> <VdW>
0.433

> <VdW6>
-4.089

> <VdW12>
4.522

> <Bond>
0.131

> <Angle>
0.628

> <Pdih>
1.047

> <Idih>
0.000

> <Tether>
0.000

$$$$
VeraChem MOL file


 20 19  0  0  0  0  0  0  0  0999 V2000     
   18.8388   19.0319   19.7830 N   0  3  0  0  0  0  0  0  0  0  0  0
   19.4545   18.3444   19.3373 H   0  0  0  0  0  0  0  0  0  0  0  0
   18.0333   18.5188   20.1546 H   0  0  0  0  0  0  0  0  0  0  0  0
   18.4851   19.6411   19.0378 H   0  0  0  0  0  0  0  0  0  0  0  0
   19.5556   19.8194   20.8612 C   0  0  0  0  0  0  0  0  0  0  0  0
   18.8521   20.5498   21.2699 H   0  0  0  0  0  0  0  0  0  0  0  0
   20.3796   20.3627   20.3907 H   0  0  0  0  0  0  0  0  0  0  0  0
   20.1004   18.9341   21.9964 C   0  0  0  0  0  0  0  0  0  0  0  0
   19.2681   18.3806   22.4491 H   0  0  0  0  0  0  0  0  0  0  0  0
   20.7941   18.1920   21.5794 H   0  0  0  0  0  0  0  0  0  0  0  0
   20.8250   19.7780   23.0715 C   0  0  0  0  0  0  0  0  0  0  0  0
   20.1188   20.4896   23.5215 H   0  0  0  0  0  0  0  0  0  0  0  0
   21.6046   20.3821   22.5866 H   0  0  0  0  0  0  0  0  0  0  0  0
   21.4828   18.9272   24.1851 C   0  0  0  0  0  0  0  0  0  0  0  0
   22.2077   18.2303   23.7415 H   0  0  0  0  0  0  0  0  0  0  0  0
   22.0597   19.5924   24.8428 H   0  0  0  0  0  0  0  0  0  0  0  0
   20.4637   18.1416   25.0417 C   0  0  0  0  0  0  0  0  0  0  0  0
   19.9447   17.3766   24.4511 H   0  0  0  0  0  0  0  0  0  0  0  0
   20.9714   17.6300   25.8696 H   0  0  0  0  0  0  0  0  0  0  0  0
   19.7103   18.8128   25.4741 H   0  0  0  0  0  0  0  0  0  0  0  0
  1  2  1  0  0  0  0
  1  3  1  0  0  0  0
  1  4  1  0  0  0  0
  1  5  1  0  0  0  0
  5  6  1  0  0  0  0
  5  7  1  0  0  0  0
  5  8  1  0  0  0  0
  8  9  1  0  0  0  0
  8 10  1  0  0  0  0
  8 11  1  0  0  0  0
 11 12  1  0  0  0  0
 11 13  1  0  0  0  0
 11 14  1  0  0  0  0
 14 15  1  0  0  0  0
 14 16  1  0  0  0  0
 14 17  1  0  0  0  0
 17 18  1  0  0  0  0
 17 19  1  0  0  0  0
 17 20  1  0  0  0  0
M  END
> <VConfSearch Rank>
515

> <Conf_Id>
41

> <Delta U+W>
0.515

> <U+W>
-11.263

> <U>
46.486

> <W>
-57.749

> <W(PB)>
-59.685

> <W(SA)>
1.936

> <Valence>
1.806

> <Coulomb>
44.248

> <VdW>
0.433

> <VdW6>
-4.089

> <VdW12>
4.522

> <Bond>
0.131

> <Angle>
0.628

> <Pdih>
1.047

> <Idih>
0.000

> <Tether>
0.000

$$$$
VeraChem MOL file


 20 19  0  0  0  0  0  0  0  0999 V2000     
   19.4443   21.7922   22.2243 N   0  3  0  0  0  0  0  0  0  0  0  0
   18.8454   22.5918   22.4556 H   0  0  0  0  0  0  0  0  0  0  0  0
   20.2484   21.8292   22.8575 H   0  0  0  0  0  0  0  0  0  0  0  0
   19.7982   21.9500   21.2756 H   0  0  0  0  0  0  0  0  0  0  0  0
   18.6961   20.4778   22.3368 C   0  0  0  0  0  0  0  0  0  0  0  0
   17.8324   20.5310   21.6684 H   0  0  0  0  0  0  0  0  0  0  0  0
   18.3271   20.3831   23.3616 H   0  0  0  0  0  0  0  0  0  0  0  0
   19.5446   19.2429   21.9749 C   0  0  0  0  0  0  0  0  0  0  0  0
   18.8840   18.3671   21.9735 H   0  0  0  0  0  0  0  0  0  0  0  0
   19.9281   19.3490   20.9514 H   0  0  0  0  0  0  0  0  0  0  0  0
   20.7175   19.0127   22.9611 C   0  0  0  0  0  0  0  0  0  0  0  0
   20.3247   18.8848   23.9793 H   0  0  0  0  0  0  0  0  0  0  0  0
   21.3549   19.9064   22.9859 H   0  0  0  0  0  0  0  0  0  0  0  0
   21.6034   17.7977   22.5925 C   0  0  0  0  0  0  0  0  0  0  0  0
   22.0099   17.9274   21.5797 H   0  0  0  0  0  0  0  0  0  0  0  0
   22.4688   17.7748   23.2696 H   0  0  0  0  0  0  0  0  0  0  0  0
   20.8635   16.4437   22.6867 C   0  0  0  0  0  0  0  0  0  0  0  0
   20.0639   16.3672   21.9396 H   0  0  0  0  0  0  0  0  0  0  0  0
   21.5590   15.6131   22.5099 H   0  0  0  0  0  0  0  0  0  0  0  0
   20.4204   16.3036   23.6812 H   0  0  0  0  0  0  0  0  0  0  0  0
  1  2  1  0  0  0  0
  1  3  1  0  0  0  0
  1  4  1  0  0  0  0
  1  5  1  0  0  0  0
  5  6  1  0  0  0  0
  5  7  1  0  0  0  0
  5  8  1  0  0  0  0
  8  9  1  0  0  0  0
  8 10  1  0  0  0  0
  8 11  1  0  0  0  0
 11 12  1  0  0  0  0
 11 13  1  0  0  0  0
 11 14  1  0  0  0  0
 14 15  1  0  0  0  0
 14 16  1  0  0  0  0
 14 17  1  0  0  0  0
 17 18  1  0  0  0  0
 17 19  1  0  0  0  0
 17 20  1  0  0  0  0
M  END
> <VConfSearch Rank>
516

> <Conf_Id>
33

> <Delta U+W>
0.703

> <U+W>
-11.075

> <U>
47.080

> <W>
-58.154

> <W(PB)>
-60.053

> <W(SA)>
1.899

> <Valence>
1.943

> <Coulomb>
44.572

> <VdW>
0.565

> <VdW6>
-4.575

> <VdW12>
5.139

> <Bond>
0.158

> <Angle>
0.700

> <Pdih>
1.085

> <Idih>
0.000

> <Tether>
0.000

$$$$
VeraChem MOL file


 20 19  0  0  0  0  0  0  0  0999 V2000     
   19.7300   20.5639   24.7888 N   0  3  0  0  0  0  0  0  0  0  0  0
   20.0050   20.8509   25.7341 H   0  0  0  0  0  0  0  0  0  0  0  0
   19.2005   21.3422   24.3837 H   0  0  0  0  0  0  0  0  0  0  0  0
   19.0814   19.7781   24.8928 H   0  0  0  0  0  0  0  0  0  0  0  0
   20.9321   20.1962   23.9404 C   0  0  0  0  0  0  0  0  0  0  0  0
   21.4629   19.3802   24.4381 H   0  0  0  0  0  0  0  0  0  0  0  0
   21.5950   21.0654   23.9123 H   0  0  0  0  0  0  0  0  0  0  0  0
   20.5761   19.7807   22.4994 C   0  0  0  0  0  0  0  0  0  0  0  0
   20.0281   20.5954   22.0079 H   0  0  0  0  0  0  0  0  0  0  0  0
   21.5130   19.6521   21.9431 H   0  0  0  0  0  0  0  0  0  0  0  0
   19.7486   18.4719   22.4410 C   0  0  0  0  0  0  0  0  0  0  0  0
   18.8296   18.5940   23.0293 H   0  0  0  0  0  0  0  0  0  0  0  0
   20.3126   17.6564   22.9144 H   0  0  0  0  0  0  0  0  0  0  0  0
   19.3502   18.0581   21.0033 C   0  0  0  0  0  0  0  0  0  0  0  0
   18.6754   17.1924   21.0604 H   0  0  0  0  0  0  0  0  0  0  0  0
   18.7738   18.8653   20.5301 H   0  0  0  0  0  0  0  0  0  0  0  0
   20.5573   17.6885   20.1110 C   0  0  0  0  0  0  0  0  0  0  0  0
   21.1681   16.9045   20.5771 H   0  0  0  0  0  0  0  0  0  0  0  0
   20.2146   17.3123   19.1384 H   0  0  0  0  0  0  0  0  0  0  0  0
   21.1993   18.5571   19.9195 H   0  0  0  0  0  0  0  0  0  0  0  0
  1  2  1  0  0  0  0
  1  3  1  0  0  0  0
  1  4  1  0  0  0  0
  1  5  1  0  0  0  0
  5  6  1  0  0  0  0
  5  7  1  0  0  0  0
  5  8  1  0  0  0  0
  8  9  1  0  0  0  0
  8 10  1  0  0  0  0
  8 11  1  0  0  0  0
 11 12  1  0  0  0  0
 11 13  1  0  0  0  0
 11 14  1  0  0  0  0
 14 15  1  0  0  0  0
 14 16  1  0  0  0  0
 14 17  1  0  0  0  0
 17 18  1  0  0  0  0
 17 19  1  0  0  0  0
 17 20  1  0  0  0  0
M  END
> <VConfSearch Rank>
517

> <Conf_Id>
24

> <Delta U+W>
0.847

> <U+W>
-10.931

> <U>
47.080

> <W>
-58.011

> <W(PB)>
-59.914

> <W(SA)>
1.903

> <Valence>
1.943

> <Coulomb>
44.572

> <VdW>
0.565

> <VdW6>
-4.575

> <VdW12>
5.140

> <Bond>
0.158

> <Angle>
0.700

> <Pdih>
1.085

> <Idih>
0.000

> <Tether>
0.000

$$$$
VeraChem MOL file


 20 19  0  0  0  0  0  0  0  0999 V2000     
   18.6120   21.4858   22.2970 N   0  3  0  0  0  0  0  0  0  0  0  0
   17.6040   21.5729   22.4643 H   0  0  0  0  0  0  0  0  0  0  0  0
   19.0846   21.9019   23.1056 H   0  0  0  0  0  0  0  0  0  0  0  0
   18.8301   22.0727   21.4857 H   0  0  0  0  0  0  0  0  0  0  0  0
   19.0243   20.0439   22.0799 C   0  0  0  0  0  0  0  0  0  0  0  0
   18.4633   19.6569   21.2250 H   0  0  0  0  0  0  0  0  0  0  0  0
   18.7351   19.4747   22.9673 H   0  0  0  0  0  0  0  0  0  0  0  0
   20.5345   19.8778   21.8263 C   0  0  0  0  0  0  0  0  0  0  0  0
   20.8218   20.4861   20.9585 H   0  0  0  0  0  0  0  0  0  0  0  0
   21.0989   20.2743   22.6800 H   0  0  0  0  0  0  0  0  0  0  0  0
   20.9395   18.4062   21.5608 C   0  0  0  0  0  0  0  0  0  0  0  0
   22.0219   18.3623   21.3770 H   0  0  0  0  0  0  0  0  0  0  0  0
   20.4614   18.0670   20.6313 H   0  0  0  0  0  0  0  0  0  0  0  0
   20.5779   17.4163   22.6976 C   0  0  0  0  0  0  0  0  0  0  0  0
   19.4879   17.3668   22.8255 H   0  0  0  0  0  0  0  0  0  0  0  0
   20.8916   16.4071   22.3961 H   0  0  0  0  0  0  0  0  0  0  0  0
   21.2445   17.7619   24.0486 C   0  0  0  0  0  0  0  0  0  0  0  0
   21.0329   16.9826   24.7922 H   0  0  0  0  0  0  0  0  0  0  0  0
   22.3345   17.8377   23.9432 H   0  0  0  0  0  0  0  0  0  0  0  0
   20.8707   18.7116   24.4510 H   0  0  0  0  0  0  0  0  0  0  0  0
  1  2  1  0  0  0  0
  1  3  1  0  0  0  0
  1  4  1  0  0  0  0
  1  5  1  0  0  0  0
  5  6  1  0  0  0  0
  5  7  1  0  0  0  0
  5  8  1  0  0  0  0
  8  9  1  0  0  0  0
  8 10  1  0  0  0  0
  8 11  1  0  0  0  0
 11 12  1  0  0  0  0
 11 13  1  0  0  0  0
 11 14  1  0  0  0  0
 14 15  1  0  0  0  0
 14 16  1  0  0  0  0
 14 17  1  0  0  0  0
 17 18  1  0  0  0  0
 17 19  1  0  0  0  0
 17 20  1  0  0  0  0
M  END
> <VConfSearch Rank>
518

> <Conf_Id>
64

> <Delta U+W>
0.707

> <U+W>
-11.070

> <U>
47.077

> <W>
-58.148

> <W(PB)>
-60.054

> <W(SA)>
1.906

> <Valence>
2.039

> <Coulomb>
44.655

> <VdW>
0.383

> <VdW6>
-4.912

> <VdW12>
5.295

> <Bond>
0.159

> <Angle>
0.856

> <Pdih>
1.024

> <Idih>
0.000

> <Tether>
0.000

$$$$
VeraChem MOL file


 20 19  0  0  0  0  0  0  0  0999 V2000     
   21.6764   20.4293   20.6211 N   0  3  0  0  0  0  0  0  0  0  0  0
   21.1373   21.1000   20.0646 H   0  0  0  0  0  0  0  0  0  0  0  0
   22.1577   20.9624   21.3521 H   0  0  0  0  0  0  0  0  0  0  0  0
   22.4016   20.0472   20.0051 H   0  0  0  0  0  0  0  0  0  0  0  0
   20.7978   19.3390   21.2005 C   0  0  0  0  0  0  0  0  0  0  0  0
   21.4403   18.6478   21.7523 H   0  0  0  0  0  0  0  0  0  0  0  0
   20.3413   18.7951   20.3692 H   0  0  0  0  0  0  0  0  0  0  0  0
   19.6969   19.8800   22.1322 C   0  0  0  0  0  0  0  0  0  0  0  0
   20.1537   20.4339   22.9622 H   0  0  0  0  0  0  0  0  0  0  0  0
   19.0832   20.6041   21.5800 H   0  0  0  0  0  0  0  0  0  0  0  0
   18.7760   18.7630   22.6838 C   0  0  0  0  0  0  0  0  0  0  0  0
   18.2323   18.3034   21.8468 H   0  0  0  0  0  0  0  0  0  0  0  0
   18.0106   19.2179   23.3276 H   0  0  0  0  0  0  0  0  0  0  0  0
   19.5071   17.6485   23.4756 C   0  0  0  0  0  0  0  0  0  0  0  0
   18.7652   16.9058   23.8008 H   0  0  0  0  0  0  0  0  0  0  0  0
   20.2033   17.1102   22.8182 H   0  0  0  0  0  0  0  0  0  0  0  0
   20.2642   18.1724   24.7171 C   0  0  0  0  0  0  0  0  0  0  0  0
   19.5936   18.7329   25.3812 H   0  0  0  0  0  0  0  0  0  0  0  0
   20.6844   17.3369   25.2919 H   0  0  0  0  0  0  0  0  0  0  0  0
   21.0963   18.8290   24.4340 H   0  0  0  0  0  0  0  0  0  0  0  0
  1  2  1  0  0  0  0
  1  3  1  0  0  0  0
  1  4  1  0  0  0  0
  1  5  1  0  0  0  0
  5  6  1  0  0  0  0
  5  7  1  0  0  0  0
  5  8  1  0  0  0  0
  8  9  1  0  0  0  0
  8 10  1  0  0  0  0
  8 11  1  0  0  0  0
 11 12  1  0  0  0  0
 11 13  1  0  0  0  0
 11 14  1  0  0  0  0
 14 15  1  0  0  0  0
 14 16  1  0  0  0  0
 14 17  1  0  0  0  0
 17 18  1  0  0  0  0
 17 19  1  0  0  0  0
 17 20  1  0  0  0  0
M  END
> <VConfSearch Rank>
519

> <Conf_Id>
22

> <Delta U+W>
0.731

> <U+W>
-11.047

> <U>
47.078

> <W>
-58.125

> <W(PB)>
-60.031

> <W(SA)>
1.906

> <Valence>
2.039

> <Coulomb>
44.655

> <VdW>
0.383

> <VdW6>
-4.913

> <VdW12>
5.296

> <Bond>
0.159

> <Angle>
0.856

> <Pdih>
1.024

> <Idih>
0.000

> <Tether>
0.000

$$$$
VeraChem MOL file


 20 19  0  0  0  0  0  0  0  0999 V2000     
   22.3040   20.5197   21.3668 N   0  3  0  0  0  0  0  0  0  0  0  0
   22.0656   21.5008   21.5428 H   0  0  0  0  0  0  0  0  0  0  0  0
   23.1890   20.3336   21.8490 H   0  0  0  0  0  0  0  0  0  0  0  0
   22.4895   20.4344   20.3619 H   0  0  0  0  0  0  0  0  0  0  0  0
   21.2043   19.5798   21.8186 C   0  0  0  0  0  0  0  0  0  0  0  0
   21.5115   18.5587   21.5769 H   0  0  0  0  0  0  0  0  0  0  0  0
   20.3070   19.8185   21.2431 H   0  0  0  0  0  0  0  0  0  0  0  0
   20.8976   19.6876   23.3229 C   0  0  0  0  0  0  0  0  0  0  0  0
   21.8336   19.5639   23.8838 H   0  0  0  0  0  0  0  0  0  0  0  0
   20.5316   20.6977   23.5499 H   0  0  0  0  0  0  0  0  0  0  0  0
   19.8778   18.6380   23.8330 C   0  0  0  0  0  0  0  0  0  0  0  0
   19.8074   18.7497   24.9239 H   0  0  0  0  0  0  0  0  0  0  0  0
   20.2620   17.6227   23.6631 H   0  0  0  0  0  0  0  0  0  0  0  0
   18.4495   18.7753   23.2444 C   0  0  0  0  0  0  0  0  0  0  0  0
   17.7340   18.3843   23.9814 H   0  0  0  0  0  0  0  0  0  0  0  0
   18.1933   19.8354   23.1086 H   0  0  0  0  0  0  0  0  0  0  0  0
   18.2385   17.9989   21.9232 C   0  0  0  0  0  0  0  0  0  0  0  0
   18.8542   18.3914   21.1073 H   0  0  0  0  0  0  0  0  0  0  0  0
   18.4777   16.9350   22.0492 H   0  0  0  0  0  0  0  0  0  0  0  0
   17.1905   18.0673   21.6038 H   0  0  0  0  0  0  0  0  0  0  0  0
  1  2  1  0  0  0  0
  1  3  1  0  0  0  0
  1  4  1  0  0  0  0
  1  5  1  0  0  0  0
  5  6  1  0  0  0  0
  5  7  1  0  0  0  0
  5  8  1  0  0  0  0
  8  9  1  0  0  0  0
  8 10  1  0  0  0  0
  8 11  1  0  0  0  0
 11 12  1  0  0  0  0
 11 13  1  0  0  0  0
 11 14  1  0  0  0  0
 14 15  1  0  0  0  0
 14 16  1  0  0  0  0
 14 17  1  0  0  0  0
 17 18  1  0  0  0  0
 17 19  1  0  0  0  0
 17 20  1  0  0  0  0
M  END
> <VConfSearch Rank>
520

> <Conf_Id>
61

> <Delta U+W>
2.669

> <U+W>
-9.108

> <U>
48.916

> <W>
-58.025

> <W(PB)>
-59.935

> <W(SA)>
1.911

> <Valence>
3.785

> <Coulomb>
44.716

> <VdW>
0.415

> <VdW6>
-4.836

> <VdW12>
5.251

> <Bond>
0.175

> <Angle>
1.195

> <Pdih>
2.415

> <Idih>
0.000

> <Tether>
0.000

$$$$
VeraChem MOL file


 20 19  0  0  0  0  0  0  0  0999 V2000     
   21.5326   17.2529   22.7304 N   0  3  0  0  0  0  0  0  0  0  0  0
   22.1266   16.5630   22.2583 H   0  0  0  0  0  0  0  0  0  0  0  0
   21.5097   16.9953   23.7221 H   0  0  0  0  0  0  0  0  0  0  0  0
   20.5843   17.1329   22.3652 H   0  0  0  0  0  0  0  0  0  0  0  0
   22.0438   18.6665   22.5280 C   0  0  0  0  0  0  0  0  0  0  0  0
   22.1020   18.8659   21.4546 H   0  0  0  0  0  0  0  0  0  0  0  0
   23.0589   18.6985   22.9330 H   0  0  0  0  0  0  0  0  0  0  0  0
   21.1949   19.7550   23.2179 C   0  0  0  0  0  0  0  0  0  0  0  0
   20.9063   19.4255   24.2249 H   0  0  0  0  0  0  0  0  0  0  0  0
   21.8348   20.6358   23.3617 H   0  0  0  0  0  0  0  0  0  0  0  0
   19.9452   20.2024   22.4167 C   0  0  0  0  0  0  0  0  0  0  0  0
   20.2572   20.5833   21.4343 H   0  0  0  0  0  0  0  0  0  0  0  0
   19.4885   21.0523   22.9425 H   0  0  0  0  0  0  0  0  0  0  0  0
   18.8766   19.1003   22.2269 C   0  0  0  0  0  0  0  0  0  0  0  0
   19.2652   18.3080   21.5750 H   0  0  0  0  0  0  0  0  0  0  0  0
   18.6381   18.6400   23.1960 H   0  0  0  0  0  0  0  0  0  0  0  0
   17.5843   19.6640   21.5983 C   0  0  0  0  0  0  0  0  0  0  0  0
   16.8405   18.8683   21.4614 H   0  0  0  0  0  0  0  0  0  0  0  0
   17.1368   20.4356   22.2383 H   0  0  0  0  0  0  0  0  0  0  0  0
   17.7852   20.1097   20.6153 H   0  0  0  0  0  0  0  0  0  0  0  0
  1  2  1  0  0  0  0
  1  3  1  0  0  0  0
  1  4  1  0  0  0  0
  1  5  1  0  0  0  0
  5  6  1  0  0  0  0
  5  7  1  0  0  0  0
  5  8  1  0  0  0  0
  8  9  1  0  0  0  0
  8 10  1  0  0  0  0
  8 11  1  0  0  0  0
 11 12  1  0  0  0  0
 11 13  1  0  0  0  0
 11 14  1  0  0  0  0
 14 15  1  0  0  0  0
 14 16  1  0  0  0  0
 14 17  1  0  0  0  0
 17 18  1  0  0  0  0
 17 19  1  0  0  0  0
 17 20  1  0  0  0  0
M  END
> <VConfSearch Rank>
521

> <Conf_Id>
69

> <Delta U+W>
2.811

> <U+W>
-8.967

> <U>
49.216

> <W>
-58.183

> <W(PB)>
-60.064

> <W(SA)>
1.881

> <Valence>
2.929

> <Coulomb>
46.006

> <VdW>
0.281

> <VdW6>
-4.909

> <VdW12>
5.190

> <Bond>
0.156

> <Angle>
0.974

> <Pdih>
1.799

> <Idih>
0.000

> <Tether>
0.000

$$$$
VeraChem MOL file


 20 19  0  0  0  0  0  0  0  0999 V2000     
   19.3592   19.6462   24.5506 N   0  3  0  0  0  0  0  0  0  0  0  0
   20.2798   19.9471   24.2205 H   0  0  0  0  0  0  0  0  0  0  0  0
   18.7393   20.4609   24.5021 H   0  0  0  0  0  0  0  0  0  0  0  0
   19.4583   19.4074   25.5430 H   0  0  0  0  0  0  0  0  0  0  0  0
   18.8204   18.4806   23.7435 C   0  0  0  0  0  0  0  0  0  0  0  0
   17.8480   18.2205   24.1707 H   0  0  0  0  0  0  0  0  0  0  0  0
   19.4879   17.6252   23.8778 H   0  0  0  0  0  0  0  0  0  0  0  0
   18.6434   18.7760   22.2392 C   0  0  0  0  0  0  0  0  0  0  0  0
   17.9027   18.0675   21.8450 H   0  0  0  0  0  0  0  0  0  0  0  0
   18.2081   19.7744   22.1002 H   0  0  0  0  0  0  0  0  0  0  0  0
   19.9365   18.6281   21.3966 C   0  0  0  0  0  0  0  0  0  0  0  0
   19.6693   18.7460   20.3372 H   0  0  0  0  0  0  0  0  0  0  0  0
   20.3265   17.6061   21.5009 H   0  0  0  0  0  0  0  0  0  0  0  0
   21.0498   19.6432   21.7465 C   0  0  0  0  0  0  0  0  0  0  0  0
   20.6389   20.6625   21.7491 H   0  0  0  0  0  0  0  0  0  0  0  0
   21.4373   19.4440   22.7535 H   0  0  0  0  0  0  0  0  0  0  0  0
   22.2223   19.5685   20.7452 C   0  0  0  0  0  0  0  0  0  0  0  0
   21.8875   19.8008   19.7258 H   0  0  0  0  0  0  0  0  0  0  0  0
   23.0073   20.2876   21.0129 H   0  0  0  0  0  0  0  0  0  0  0  0
   22.6716   18.5669   20.7374 H   0  0  0  0  0  0  0  0  0  0  0  0
  1  2  1  0  0  0  0
  1  3  1  0  0  0  0
  1  4  1  0  0  0  0
  1  5  1  0  0  0  0
  5  6  1  0  0  0  0
  5  7  1  0  0  0  0
  5  8  1  0  0  0  0
  8  9  1  0  0  0  0
  8 10  1  0  0  0  0
  8 11  1  0  0  0  0
 11 12  1  0  0  0  0
 11 13  1  0  0  0  0
 11 14  1  0  0  0  0
 14 15  1  0  0  0  0
 14 16  1  0  0  0  0
 14 17  1  0  0  0  0
 17 18  1  0  0  0  0
 17 19  1  0  0  0  0
 17 20  1  0  0  0  0
M  END
> <VConfSearch Rank>
522

> <Conf_Id>
26

> <Delta U+W>
2.809

> <U+W>
-8.969

> <U>
49.216

> <W>
-58.185

> <W(PB)>
-60.088

> <W(SA)>
1.903

> <Valence>
2.929

> <Coulomb>
46.006

> <VdW>
0.281

> <VdW6>
-4.909

> <VdW12>
5.190

> <Bond>
0.156

> <Angle>
0.974

> <Pdih>
1.799

> <Idih>
0.000

> <Tether>
0.000

$$$$
VeraChem MOL file


 20 19  0  0  0  0  0  0  0  0999 V2000     
   20.2650   18.6017   20.1158 N   0  3  0  0  0  0  0  0  0  0  0  0
   19.4482   18.1159   20.4976 H   0  0  0  0  0  0  0  0  0  0  0  0
   19.9189   19.2940   19.4442 H   0  0  0  0  0  0  0  0  0  0  0  0
   20.8032   17.9113   19.5821 H   0  0  0  0  0  0  0  0  0  0  0  0
   21.0975   19.2435   21.2085 C   0  0  0  0  0  0  0  0  0  0  0  0
   21.9633   19.7140   20.7346 H   0  0  0  0  0  0  0  0  0  0  0  0
   21.4611   18.4514   21.8683 H   0  0  0  0  0  0  0  0  0  0  0  0
   20.3309   20.2966   22.0340 C   0  0  0  0  0  0  0  0  0  0  0  0
   21.0247   20.7619   22.7457 H   0  0  0  0  0  0  0  0  0  0  0  0
   19.9997   21.1039   21.3675 H   0  0  0  0  0  0  0  0  0  0  0  0
   19.1049   19.7293   22.7970 C   0  0  0  0  0  0  0  0  0  0  0  0
   18.3412   19.4131   22.0739 H   0  0  0  0  0  0  0  0  0  0  0  0
   18.6449   20.5398   23.3791 H   0  0  0  0  0  0  0  0  0  0  0  0
   19.4204   18.5439   23.7447 C   0  0  0  0  0  0  0  0  0  0  0  0
   18.4836   18.2101   24.2126 H   0  0  0  0  0  0  0  0  0  0  0  0
   19.7925   17.6854   23.1693 H   0  0  0  0  0  0  0  0  0  0  0  0
   20.4323   18.9008   24.8571 C   0  0  0  0  0  0  0  0  0  0  0  0
   20.0914   19.7678   25.4376 H   0  0  0  0  0  0  0  0  0  0  0  0
   20.5537   18.0591   25.5511 H   0  0  0  0  0  0  0  0  0  0  0  0
   21.4215   19.1318   24.4427 H   0  0  0  0  0  0  0  0  0  0  0  0
  1  2  1  0  0  0  0
  1  3  1  0  0  0  0
  1  4  1  0  0  0  0
  1  5  1  0  0  0  0
  5  6  1  0  0  0  0
  5  7  1  0  0  0  0
  5  8  1  0  0  0  0
  8  9  1  0  0  0  0
  8 10  1  0  0  0  0
  8 11  1  0  0  0  0
 11 12  1  0  0  0  0
 11 13  1  0  0  0  0
 11 14  1  0  0  0  0
 14 15  1  0  0  0  0
 14 16  1  0  0  0  0
 14 17  1  0  0  0  0
 17 18  1  0  0  0  0
 17 19  1  0  0  0  0
 17 20  1  0  0  0  0
M  END
> <VConfSearch Rank>
523

> <Conf_Id>
2

> <Delta U+W>
0.994

> <U+W>
-10.784

> <U>
47.562

> <W>
-58.346

> <W(PB)>
-60.221

> <W(SA)>
1.875

> <Valence>
2.149

> <Coulomb>
45.034

> <VdW>
0.378

> <VdW6>
-5.599

> <VdW12>
5.977

> <Bond>
0.185

> <Angle>
0.935

> <Pdih>
1.028

> <Idih>
0.000

> <Tether>
0.000

$$$$
VeraChem MOL file


 20 19  0  0  0  0  0  0  0  0999 V2000     
   19.8799   17.4636   20.6889 N   0  3  0  0  0  0  0  0  0  0  0  0
   19.0377   16.8807   20.7204 H   0  0  0  0  0  0  0  0  0  0  0  0
   19.6031   18.3753   20.3133 H   0  0  0  0  0  0  0  0  0  0  0  0
   20.5131   17.0363   20.0049 H   0  0  0  0  0  0  0  0  0  0  0  0
   20.5279   17.5923   22.0536 C   0  0  0  0  0  0  0  0  0  0  0  0
   21.4334   18.1949   21.9446 H   0  0  0  0  0  0  0  0  0  0  0  0
   20.8242   16.5908   22.3774 H   0  0  0  0  0  0  0  0  0  0  0  0
   19.6087   18.2234   23.1190 C   0  0  0  0  0  0  0  0  0  0  0  0
   18.7189   17.5926   23.2450 H   0  0  0  0  0  0  0  0  0  0  0  0
   20.1261   18.2077   24.0868 H   0  0  0  0  0  0  0  0  0  0  0  0
   19.1644   19.6729   22.7896 C   0  0  0  0  0  0  0  0  0  0  0  0
   18.5444   20.0488   23.6152 H   0  0  0  0  0  0  0  0  0  0  0  0
   18.5090   19.6608   21.9083 H   0  0  0  0  0  0  0  0  0  0  0  0
   20.3261   20.6678   22.5376 C   0  0  0  0  0  0  0  0  0  0  0  0
   20.9035   20.3627   21.6545 H   0  0  0  0  0  0  0  0  0  0  0  0
   19.8993   21.6508   22.2939 H   0  0  0  0  0  0  0  0  0  0  0  0
   21.2736   20.8233   23.7488 C   0  0  0  0  0  0  0  0  0  0  0  0
   21.8125   19.8914   23.9608 H   0  0  0  0  0  0  0  0  0  0  0  0
   22.0233   21.6008   23.5532 H   0  0  0  0  0  0  0  0  0  0  0  0
   20.7179   21.1123   24.6502 H   0  0  0  0  0  0  0  0  0  0  0  0
  1  2  1  0  0  0  0
  1  3  1  0  0  0  0
  1  4  1  0  0  0  0
  1  5  1  0  0  0  0
  5  6  1  0  0  0  0
  5  7  1  0  0  0  0
  5  8  1  0  0  0  0
  8  9  1  0  0  0  0
  8 10  1  0  0  0  0
  8 11  1  0  0  0  0
 11 12  1  0  0  0  0
 11 13  1  0  0  0  0
 11 14  1  0  0  0  0
 14 15  1  0  0  0  0
 14 16  1  0  0  0  0
 14 17  1  0  0  0  0
 17 18  1  0  0  0  0
 17 19  1  0  0  0  0
 17 20  1  0  0  0  0
M  END
> <VConfSearch Rank>
524

> <Conf_Id>
1

> <Delta U+W>
1.032

> <U+W>
-10.746

> <U>
47.562

> <W>
-58.308

> <W(PB)>
-60.184

> <W(SA)>
1.877

> <Valence>
2.149

> <Coulomb>
45.035

> <VdW>
0.378

> <VdW6>
-5.599

> <VdW12>
5.978

> <Bond>
0.185

> <Angle>
0.935

> <Pdih>
1.028

> <Idih>
0.000

> <Tether>
0.000

$$$$
VeraChem MOL file


 20 19  0  0  0  0  0  0  0  0999 V2000     
   19.8243   18.5424   24.7115 N   0  3  0  0  0  0  0  0  0  0  0  0
   19.9731   19.2482   25.4394 H   0  0  0  0  0  0  0  0  0  0  0  0
   18.9267   18.7522   24.2653 H   0  0  0  0  0  0  0  0  0  0  0  0
   19.7181   17.6407   25.1880 H   0  0  0  0  0  0  0  0  0  0  0  0
   20.9607   18.5183   23.7077 C   0  0  0  0  0  0  0  0  0  0  0  0
   20.7535   17.7284   22.9842 H   0  0  0  0  0  0  0  0  0  0  0  0
   21.8713   18.2477   24.2492 H   0  0  0  0  0  0  0  0  0  0  0  0
   21.1831   19.8641   22.9851 C   0  0  0  0  0  0  0  0  0  0  0  0
   21.3779   20.6311   23.7464 H   0  0  0  0  0  0  0  0  0  0  0  0
   22.0963   19.8045   22.3784 H   0  0  0  0  0  0  0  0  0  0  0  0
   19.9974   20.3283   22.0969 C   0  0  0  0  0  0  0  0  0  0  0  0
   20.0675   21.4192   21.9854 H   0  0  0  0  0  0  0  0  0  0  0  0
   19.0403   20.1476   22.6029 H   0  0  0  0  0  0  0  0  0  0  0  0
   19.9664   19.7184   20.6717 C   0  0  0  0  0  0  0  0  0  0  0  0
   19.1449   20.1891   20.1136 H   0  0  0  0  0  0  0  0  0  0  0  0
   20.8878   19.9840   20.1348 H   0  0  0  0  0  0  0  0  0  0  0  0
   19.7719   18.1866   20.6316 C   0  0  0  0  0  0  0  0  0  0  0  0
   18.9234   17.8756   21.2544 H   0  0  0  0  0  0  0  0  0  0  0  0
   19.5734   17.8538   19.6046 H   0  0  0  0  0  0  0  0  0  0  0  0
   20.6714   17.6606   20.9728 H   0  0  0  0  0  0  0  0  0  0  0  0
  1  2  1  0  0  0  0
  1  3  1  0  0  0  0
  1  4  1  0  0  0  0
  1  5  1  0  0  0  0
  5  6  1  0  0  0  0
  5  7  1  0  0  0  0
  5  8  1  0  0  0  0
  8  9  1  0  0  0  0
  8 10  1  0  0  0  0
  8 11  1  0  0  0  0
 11 12  1  0  0  0  0
 11 13  1  0  0  0  0
 11 14  1  0  0  0  0
 14 15  1  0  0  0  0
 14 16  1  0  0  0  0
 14 17  1  0  0  0  0
 17 18  1  0  0  0  0
 17 19  1  0  0  0  0
 17 20  1  0  0  0  0
M  END
> <VConfSearch Rank>
525

> <Conf_Id>
80

> <Delta U+W>
2.920

> <U+W>
-8.857

> <U>
49.434

> <W>
-58.292

> <W(PB)>
-60.170

> <W(SA)>
1.879

> <Valence>
3.798

> <Coulomb>
45.253

> <VdW>
0.384

> <VdW6>
-5.595

> <VdW12>
5.979

> <Bond>
0.198

> <Angle>
1.368

> <Pdih>
2.231

> <Idih>
0.000

> <Tether>
0.000

$$$$
VeraChem MOL file


 20 19  0  0  0  0  0  0  0  0999 V2000     
   20.7844   16.9649   22.1560 N   0  3  0  0  0  0  0  0  0  0  0  0
   21.2495   16.4591   22.9162 H   0  0  0  0  0  0  0  0  0  0  0  0
   20.4912   16.2640   21.4674 H   0  0  0  0  0  0  0  0  0  0  0  0
   21.4926   17.5502   21.7038 H   0  0  0  0  0  0  0  0  0  0  0  0
   19.6121   17.7854   22.6583 C   0  0  0  0  0  0  0  0  0  0  0  0
   18.8845   17.0906   23.0865 H   0  0  0  0  0  0  0  0  0  0  0  0
   19.1473   18.2694   21.7979 H   0  0  0  0  0  0  0  0  0  0  0  0
   19.9962   18.8351   23.7228 C   0  0  0  0  0  0  0  0  0  0  0  0
   19.0840   19.2929   24.1278 H   0  0  0  0  0  0  0  0  0  0  0  0
   20.4676   18.3100   24.5641 H   0  0  0  0  0  0  0  0  0  0  0  0
   20.9581   19.9462   23.2222 C   0  0  0  0  0  0  0  0  0  0  0  0
   21.7452   19.5199   22.5870 H   0  0  0  0  0  0  0  0  0  0  0  0
   21.4799   20.3585   24.0969 H   0  0  0  0  0  0  0  0  0  0  0  0
   20.2715   21.1296   22.4926 C   0  0  0  0  0  0  0  0  0  0  0  0
   19.5517   21.6137   23.1673 H   0  0  0  0  0  0  0  0  0  0  0  0
   21.0358   21.8878   22.2715 H   0  0  0  0  0  0  0  0  0  0  0  0
   19.5632   20.7484   21.1739 C   0  0  0  0  0  0  0  0  0  0  0  0
   18.6500   20.1720   21.3630 H   0  0  0  0  0  0  0  0  0  0  0  0
   19.2670   21.6516   20.6248 H   0  0  0  0  0  0  0  0  0  0  0  0
   20.2227   20.1612   20.5219 H   0  0  0  0  0  0  0  0  0  0  0  0
  1  2  1  0  0  0  0
  1  3  1  0  0  0  0
  1  4  1  0  0  0  0
  1  5  1  0  0  0  0
  5  6  1  0  0  0  0
  5  7  1  0  0  0  0
  5  8  1  0  0  0  0
  8  9  1  0  0  0  0
  8 10  1  0  0  0  0
  8 11  1  0  0  0  0
 11 12  1  0  0  0  0
 11 13  1  0  0  0  0
 11 14  1  0  0  0  0
 14 15  1  0  0  0  0
 14 16  1  0  0  0  0
 14 17  1  0  0  0  0
 17 18  1  0  0  0  0
 17 19  1  0  0  0  0
 17 20  1  0  0  0  0
M  END
> <VConfSearch Rank>
526

> <Conf_Id>
65

> <Delta U+W>
2.949

> <U+W>
-8.829

> <U>
49.435

> <W>
-58.263

> <W(PB)>
-60.125

> <W(SA)>
1.862

> <Valence>
3.797

> <Coulomb>
45.253

> <VdW>
0.384

> <VdW6>
-5.596

> <VdW12>
5.980

> <Bond>
0.198

> <Angle>
1.369

> <Pdih>
2.230

> <Idih>
0.000

> <Tether>
0.000

$$$$
VeraChem MOL file


 20 19  0  0  0  0  0  0  0  0999 V2000     
   18.9029   19.2864   20.8965 N   0  3  0  0  0  0  0  0  0  0  0  0
   18.8105   19.8187   20.0248 H   0  0  0  0  0  0  0  0  0  0  0  0
   19.8060   18.8035   20.8658 H   0  0  0  0  0  0  0  0  0  0  0  0
   18.1722   18.5679   20.8858 H   0  0  0  0  0  0  0  0  0  0  0  0
   18.7951   20.1802   22.1168 C   0  0  0  0  0  0  0  0  0  0  0  0
   17.8108   20.6549   22.0791 H   0  0  0  0  0  0  0  0  0  0  0  0
   19.5529   20.9649   22.0450 H   0  0  0  0  0  0  0  0  0  0  0  0
   18.9417   19.4313   23.4570 C   0  0  0  0  0  0  0  0  0  0  0  0
   18.4514   20.0353   24.2320 H   0  0  0  0  0  0  0  0  0  0  0  0
   18.3836   18.4864   23.4178 H   0  0  0  0  0  0  0  0  0  0  0  0
   20.4027   19.1717   23.9130 C   0  0  0  0  0  0  0  0  0  0  0  0
   20.3576   18.6860   24.8977 H   0  0  0  0  0  0  0  0  0  0  0  0
   20.9180   20.1276   24.0811 H   0  0  0  0  0  0  0  0  0  0  0  0
   21.2444   18.2719   22.9726 C   0  0  0  0  0  0  0  0  0  0  0  0
   21.9144   17.6539   23.5870 H   0  0  0  0  0  0  0  0  0  0  0  0
   20.5975   17.5634   22.4379 H   0  0  0  0  0  0  0  0  0  0  0  0
   22.1196   19.0777   21.9834 C   0  0  0  0  0  0  0  0  0  0  0  0
   21.5329   19.7762   21.3772 H   0  0  0  0  0  0  0  0  0  0  0  0
   22.8728   19.6650   22.5247 H   0  0  0  0  0  0  0  0  0  0  0  0
   22.6543   18.4032   21.3020 H   0  0  0  0  0  0  0  0  0  0  0  0
  1  2  1  0  0  0  0
  1  3  1  0  0  0  0
  1  4  1  0  0  0  0
  1  5  1  0  0  0  0
  5  6  1  0  0  0  0
  5  7  1  0  0  0  0
  5  8  1  0  0  0  0
  8  9  1  0  0  0  0
  8 10  1  0  0  0  0
  8 11  1  0  0  0  0
 11 12  1  0  0  0  0
 11 13  1  0  0  0  0
 11 14  1  0  0  0  0
 14 15  1  0  0  0  0
 14 16  1  0  0  0  0
 14 17  1  0  0  0  0
 17 18  1  0  0  0  0
 17 19  1  0  0  0  0
 17 20  1  0  0  0  0
M  END
> <VConfSearch Rank>
527

> <Conf_Id>
77

> <Delta U+W>
5.366

> <U+W>
-6.412

> <U>
51.542

> <W>
-57.954

> <W(PB)>
-59.811

> <W(SA)>
1.857

> <Valence>
5.347

> <Coulomb>
45.870

> <VdW>
0.325

> <VdW6>
-6.161

> <VdW12>
6.486

> <Bond>
0.201

> <Angle>
1.484

> <Pdih>
3.662

> <Idih>
0.000

> <Tether>
0.000

$$$$
VeraChem MOL file


 20 19  0  0  0  0  0  0  0  0999 V2000     
   19.5868   18.9907   24.3286 N   0  3  0  0  0  0  0  0  0  0  0  0
   20.3285   19.0433   25.0339 H   0  0  0  0  0  0  0  0  0  0  0  0
   19.6190   19.8597   23.7868 H   0  0  0  0  0  0  0  0  0  0  0  0
   18.6948   18.9781   24.8344 H   0  0  0  0  0  0  0  0  0  0  0  0
   19.7452   17.7757   23.4351 C   0  0  0  0  0  0  0  0  0  0  0  0
   18.8962   17.7326   22.7478 H   0  0  0  0  0  0  0  0  0  0  0  0
   19.7026   16.8955   24.0824 H   0  0  0  0  0  0  0  0  0  0  0  0
   21.0657   17.7514   22.6388 C   0  0  0  0  0  0  0  0  0  0  0  0
   21.8951   18.0698   23.2843 H   0  0  0  0  0  0  0  0  0  0  0  0
   21.2771   16.7066   22.3752 H   0  0  0  0  0  0  0  0  0  0  0  0
   21.0613   18.5792   21.3255 C   0  0  0  0  0  0  0  0  0  0  0  0
   20.3184   18.1695   20.6272 H   0  0  0  0  0  0  0  0  0  0  0  0
   22.0351   18.4282   20.8392 H   0  0  0  0  0  0  0  0  0  0  0  0
   20.8436   20.1039   21.4996 C   0  0  0  0  0  0  0  0  0  0  0  0
   21.2246   20.4379   22.4740 H   0  0  0  0  0  0  0  0  0  0  0  0
   21.4491   20.6318   20.7493 H   0  0  0  0  0  0  0  0  0  0  0  0
   19.3700   20.5335   21.3046 C   0  0  0  0  0  0  0  0  0  0  0  0
   19.2526   21.6089   21.4911 H   0  0  0  0  0  0  0  0  0  0  0  0
   19.0448   20.3399   20.2740 H   0  0  0  0  0  0  0  0  0  0  0  0
   18.6852   19.9976   21.9704 H   0  0  0  0  0  0  0  0  0  0  0  0
  1  2  1  0  0  0  0
  1  3  1  0  0  0  0
  1  4  1  0  0  0  0
  1  5  1  0  0  0  0
  5  6  1  0  0  0  0
  5  7  1  0  0  0  0
  5  8  1  0  0  0  0
  8  9  1  0  0  0  0
  8 10  1  0  0  0  0
  8 11  1  0  0  0  0
 11 12  1  0  0  0  0
 11 13  1  0  0  0  0
 11 14  1  0  0  0  0
 14 15  1  0  0  0  0
 14 16  1  0  0  0  0
 14 17  1  0  0  0  0
 17 18  1  0  0  0  0
 17 19  1  0  0  0  0
 17 20  1  0  0  0  0
M  END
> <VConfSearch Rank>
528

> <Conf_Id>
67

> <Delta U+W>
5.353

> <U+W>
-6.425

> <U>
51.541

> <W>
-57.966

> <W(PB)>
-59.821

> <W(SA)>
1.855

> <Valence>
5.347

> <Coulomb>
45.870

> <VdW>
0.325

> <VdW6>
-6.161

> <VdW12>
6.486

> <Bond>
0.201

> <Angle>
1.485

> <Pdih>
3.662

> <Idih>
0.000

> <Tether>
0.000

$$$$
VeraChem MOL file


 20 19  0  0  0  0  0  0  0  0999 V2000     
   18.5864   19.9112   19.7672 N   0  3  0  0  0  0  0  0  0  0  0  0
   18.7097   19.0244   19.2684 H   0  0  0  0  0  0  0  0  0  0  0  0
   17.6609   20.2705   19.5103 H   0  0  0  0  0  0  0  0  0  0  0  0
   19.2757   20.5683   19.3884 H   0  0  0  0  0  0  0  0  0  0  0  0
   18.7286   19.7426   21.2665 C   0  0  0  0  0  0  0  0  0  0  0  0
   17.9473   19.0564   21.6046 H   0  0  0  0  0  0  0  0  0  0  0  0
   18.5560   20.7161   21.7335 H   0  0  0  0  0  0  0  0  0  0  0  0
   20.1080   19.2041   21.6865 C   0  0  0  0  0  0  0  0  0  0  0  0
   20.2839   18.2340   21.2027 H   0  0  0  0  0  0  0  0  0  0  0  0
   20.8904   19.8879   21.3311 H   0  0  0  0  0  0  0  0  0  0  0  0
   20.2114   19.0471   23.2199 C   0  0  0  0  0  0  0  0  0  0  0  0
   19.4239   18.3664   23.5727 H   0  0  0  0  0  0  0  0  0  0  0  0
   20.0299   20.0183   23.7010 H   0  0  0  0  0  0  0  0  0  0  0  0
   21.5926   18.5068   23.6534 C   0  0  0  0  0  0  0  0  0  0  0  0
   21.7774   17.5341   23.1760 H   0  0  0  0  0  0  0  0  0  0  0  0
   22.3832   19.1859   23.3044 H   0  0  0  0  0  0  0  0  0  0  0  0
   21.6912   18.3514   25.1861 C   0  0  0  0  0  0  0  0  0  0  0  0
   20.9343   17.6505   25.5616 H   0  0  0  0  0  0  0  0  0  0  0  0
   22.6782   17.9669   25.4741 H   0  0  0  0  0  0  0  0  0  0  0  0
   21.5450   19.3152   25.6910 H   0  0  0  0  0  0  0  0  0  0  0  0
  1  2  1  0  0  0  0
  1  3  1  0  0  0  0
  1  4  1  0  0  0  0
  1  5  1  0  0  0  0
  5  6  1  0  0  0  0
  5  7  1  0  0  0  0
  5  8  1  0  0  0  0
  8  9  1  0  0  0  0
  8 10  1  0  0  0  0
  8 11  1  0  0  0  0
 11 12  1  0  0  0  0
 11 13  1  0  0  0  0
 11 14  1  0  0  0  0
 14 15  1  0  0  0  0
 14 16  1  0  0  0  0
 14 17  1  0  0  0  0
 17 18  1  0  0  0  0
 17 19  1  0  0  0  0
 17 20  1  0  0  0  0
M  END
> <VConfSearch Rank>
529

> <Conf_Id>
72

> <Delta U+W>
0.000

> <U+W>
-11.778

> <U>
45.772

> <W>
-57.550

> <W(PB)>
-59.511

> <W(SA)>
1.961

> <Valence>
1.299

> <Coulomb>
44.177

> <VdW>
0.297

> <VdW6>
-3.490

> <VdW12>
3.786

> <Bond>
0.096

> <Angle>
0.381

> <Pdih>
0.822

> <Idih>
0.000

> <Tether>
0.000

$$$$
VeraChem MOL file


 20 19  0  0  0  0  0  0  0  0999 V2000     
   22.5410   17.5480   23.1225 N   0  3  0  0  0  0  0  0  0  0  0  0
   23.1385   18.1892   22.5913 H   0  0  0  0  0  0  0  0  0  0  0  0
   22.6230   17.8084   24.1104 H   0  0  0  0  0  0  0  0  0  0  0  0
   22.9501   16.6126   23.0269 H   0  0  0  0  0  0  0  0  0  0  0  0
   21.1035   17.5854   22.6442 C   0  0  0  0  0  0  0  0  0  0  0  0
   20.5339   16.8593   23.2306 H   0  0  0  0  0  0  0  0  0  0  0  0
   21.0877   17.2694   21.5976 H   0  0  0  0  0  0  0  0  0  0  0  0
   20.4583   18.9767   22.7746 C   0  0  0  0  0  0  0  0  0  0  0  0
   20.4907   19.2969   23.8245 H   0  0  0  0  0  0  0  0  0  0  0  0
   21.0478   19.7000   22.1972 H   0  0  0  0  0  0  0  0  0  0  0  0
   18.9932   18.9677   22.2779 C   0  0  0  0  0  0  0  0  0  0  0  0
   18.4385   18.1852   22.8144 H   0  0  0  0  0  0  0  0  0  0  0  0
   18.9646   18.6921   21.2146 H   0  0  0  0  0  0  0  0  0  0  0  0
   18.2630   20.3173   22.4826 C   0  0  0  0  0  0  0  0  0  0  0  0
   17.2074   20.1931   22.2029 H   0  0  0  0  0  0  0  0  0  0  0  0
   18.2684   20.5852   23.5485 H   0  0  0  0  0  0  0  0  0  0  0  0
   18.8652   21.4743   21.6529 C   0  0  0  0  0  0  0  0  0  0  0  0
   18.8972   21.2201   20.5855 H   0  0  0  0  0  0  0  0  0  0  0  0
   18.2583   22.3823   21.7631 H   0  0  0  0  0  0  0  0  0  0  0  0
   19.8837   21.7177   21.9796 H   0  0  0  0  0  0  0  0  0  0  0  0
  1  2  1  0  0  0  0
  1  3  1  0  0  0  0
  1  4  1  0  0  0  0
  1  5  1  0  0  0  0
  5  6  1  0  0  0  0
  5  7  1  0  0  0  0
  5  8  1  0  0  0  0
  8  9  1  0  0  0  0
  8 10  1  0  0  0  0
  8 11  1  0  0  0  0
 11 12  1  0  0  0  0
 11 13  1  0  0  0  0
 11 14  1  0  0  0  0
 14 15  1  0  0  0  0
 14 16  1  0  0  0  0
 14 17  1  0  0  0  0
 17 18  1  0  0  0  0
 17 19  1  0  0  0  0
 17 20  1  0  0  0  0
M  END
> <VConfSearch Rank>
530

> <Conf_Id>
42

> <Delta U+W>
0.508

> <U+W>
-11.270

> <U>
46.486

> <W>
-57.756

> <W(PB)>
-59.705

> <W(SA)>
1.949

> <Valence>
1.806

> <Coulomb>
44.248

> <VdW>
0.433

> <VdW6>
-4.089

> <VdW12>
4.522

> <Bond>
0.131

> <Angle>
0.628

> <Pdih>
1.047

> <Idih>
0.000

> <Tether>
0.000

$$$$
VeraChem MOL file


 20 19  0  0  0  0  0  0  0  0999 V2000     
   22.0113   21.1940   23.4928 N   0  3  0  0  0  0  0  0  0  0  0  0
   21.6512   21.9665   22.9236 H   0  0  0  0  0  0  0  0  0  0  0  0
   21.5207   21.2281   24.3919 H   0  0  0  0  0  0  0  0  0  0  0  0
   22.9974   21.4006   23.6843 H   0  0  0  0  0  0  0  0  0  0  0  0
   21.8401   19.8550   22.8041 C   0  0  0  0  0  0  0  0  0  0  0  0
   22.2705   19.0854   23.4506 H   0  0  0  0  0  0  0  0  0  0  0  0
   22.4115   19.8794   21.8723 H   0  0  0  0  0  0  0  0  0  0  0  0
   20.3700   19.5138   22.5012 C   0  0  0  0  0  0  0  0  0  0  0  0
   19.8029   19.5096   23.4407 H   0  0  0  0  0  0  0  0  0  0  0  0
   19.9373   20.2972   21.8650 H   0  0  0  0  0  0  0  0  0  0  0  0
   20.2429   18.1421   21.7974 C   0  0  0  0  0  0  0  0  0  0  0  0
   20.6339   17.3519   22.4534 H   0  0  0  0  0  0  0  0  0  0  0  0
   20.8775   18.1402   20.9002 H   0  0  0  0  0  0  0  0  0  0  0  0
   18.7940   17.7955   21.3764 C   0  0  0  0  0  0  0  0  0  0  0  0
   18.4073   18.5714   20.7009 H   0  0  0  0  0  0  0  0  0  0  0  0
   18.8092   16.8627   20.7953 H   0  0  0  0  0  0  0  0  0  0  0  0
   17.8310   17.6210   22.5730 C   0  0  0  0  0  0  0  0  0  0  0  0
   17.6881   18.5630   23.1167 H   0  0  0  0  0  0  0  0  0  0  0  0
   16.8442   17.2880   22.2264 H   0  0  0  0  0  0  0  0  0  0  0  0
   18.2094   16.8700   23.2786 H   0  0  0  0  0  0  0  0  0  0  0  0
  1  2  1  0  0  0  0
  1  3  1  0  0  0  0
  1  4  1  0  0  0  0
  1  5  1  0  0  0  0
  5  6  1  0  0  0  0
  5  7  1  0  0  0  0
  5  8  1  0  0  0  0
  8  9  1  0  0  0  0
  8 10  1  0  0  0  0
  8 11  1  0  0  0  0
 11 12  1  0  0  0  0
 11 13  1  0  0  0  0
 11 14  1  0  0  0  0
 14 15  1  0  0  0  0
 14 16  1  0  0  0  0
 14 17  1  0  0  0  0
 17 18  1  0  0  0  0
 17 19  1  0  0  0  0
 17 20  1  0  0  0  0
M  END
> <VConfSearch Rank>
531

> <Conf_Id>
41

> <Delta U+W>
0.515

> <U+W>
-11.263

> <U>
46.486

> <W>
-57.749

> <W(PB)>
-59.685

> <W(SA)>
1.936

> <Valence>
1.806

> <Coulomb>
44.248

> <VdW>
0.433

> <VdW6>
-4.089

> <VdW12>
4.522

> <Bond>
0.131

> <Angle>
0.628

> <Pdih>
1.047

> <Idih>
0.000

> <Tether>
0.000

$$$$
VeraChem MOL file


 20 19  0  0  0  0  0  0  0  0999 V2000     
   18.1112   17.9116   23.8884 N   0  3  0  0  0  0  0  0  0  0  0  0
   17.4844   17.8570   24.6982 H   0  0  0  0  0  0  0  0  0  0  0  0
   17.6022   18.4068   23.1504 H   0  0  0  0  0  0  0  0  0  0  0  0
   18.2601   16.9517   23.5620 H   0  0  0  0  0  0  0  0  0  0  0  0
   19.4177   18.6000   24.2338 C   0  0  0  0  0  0  0  0  0  0  0  0
   19.8786   18.0420   25.0534 H   0  0  0  0  0  0  0  0  0  0  0  0
   19.1870   19.6058   24.5952 H   0  0  0  0  0  0  0  0  0  0  0  0
   20.4086   18.6866   23.0562 C   0  0  0  0  0  0  0  0  0  0  0  0
   21.3545   19.0894   23.4390 H   0  0  0  0  0  0  0  0  0  0  0  0
   20.6247   17.6764   22.6842 H   0  0  0  0  0  0  0  0  0  0  0  0
   19.8887   19.5788   21.9009 C   0  0  0  0  0  0  0  0  0  0  0  0
   19.6963   20.5938   22.2754 H   0  0  0  0  0  0  0  0  0  0  0  0
   18.9241   19.1924   21.5463 H   0  0  0  0  0  0  0  0  0  0  0  0
   20.8547   19.6483   20.6930 C   0  0  0  0  0  0  0  0  0  0  0  0
   21.0397   18.6364   20.3060 H   0  0  0  0  0  0  0  0  0  0  0  0
   20.3633   20.2021   19.8807 H   0  0  0  0  0  0  0  0  0  0  0  0
   22.2009   20.3349   21.0185 C   0  0  0  0  0  0  0  0  0  0  0  0
   22.7892   19.7510   21.7370 H   0  0  0  0  0  0  0  0  0  0  0  0
   22.8062   20.4434   20.1092 H   0  0  0  0  0  0  0  0  0  0  0  0
   22.0424   21.3373   21.4369 H   0  0  0  0  0  0  0  0  0  0  0  0
  1  2  1  0  0  0  0
  1  3  1  0  0  0  0
  1  4  1  0  0  0  0
  1  5  1  0  0  0  0
  5  6  1  0  0  0  0
  5  7  1  0  0  0  0
  5  8  1  0  0  0  0
  8  9  1  0  0  0  0
  8 10  1  0  0  0  0
  8 11  1  0  0  0  0
 11 12  1  0  0  0  0
 11 13  1  0  0  0  0
 11 14  1  0  0  0  0
 14 15  1  0  0  0  0
 14 16  1  0  0  0  0
 14 17  1  0  0  0  0
 17 18  1  0  0  0  0
 17 19  1  0  0  0  0
 17 20  1  0  0  0  0
M  END
> <VConfSearch Rank>
532

> <Conf_Id>
33

> <Delta U+W>
0.703

> <U+W>
-11.075

> <U>
47.080

> <W>
-58.154

> <W(PB)>
-60.053

> <W(SA)>
1.899

> <Valence>
1.943

> <Coulomb>
44.572

> <VdW>
0.565

> <VdW6>
-4.575

> <VdW12>
5.139

> <Bond>
0.158

> <Angle>
0.700

> <Pdih>
1.085

> <Idih>
0.000

> <Tether>
0.000

$$$$
VeraChem MOL file


 20 19  0  0  0  0  0  0  0  0999 V2000     
   22.5837   20.3542   22.9192 N   0  3  0  0  0  0  0  0  0  0  0  0
   23.3689   20.6023   23.5303 H   0  0  0  0  0  0  0  0  0  0  0  0
   22.9553   20.2955   21.9659 H   0  0  0  0  0  0  0  0  0  0  0  0
   21.9289   21.1415   22.9409 H   0  0  0  0  0  0  0  0  0  0  0  0
   21.9239   19.0581   23.3491 C   0  0  0  0  0  0  0  0  0  0  0  0
   21.5721   19.1802   24.3771 H   0  0  0  0  0  0  0  0  0  0  0  0
   22.6910   18.2789   23.3428 H   0  0  0  0  0  0  0  0  0  0  0  0
   20.7510   18.6251   22.4475 C   0  0  0  0  0  0  0  0  0  0  0  0
   21.1035   18.5202   21.4129 H   0  0  0  0  0  0  0  0  0  0  0  0
   20.4256   17.6286   22.7710 H   0  0  0  0  0  0  0  0  0  0  0  0
   19.5564   19.6104   22.5051 C   0  0  0  0  0  0  0  0  0  0  0  0
   19.8958   20.6137   22.2155 H   0  0  0  0  0  0  0  0  0  0  0  0
   19.1948   19.6930   23.5395 H   0  0  0  0  0  0  0  0  0  0  0  0
   18.3828   19.2112   21.5777 C   0  0  0  0  0  0  0  0  0  0  0  0
   17.6335   20.0151   21.5922 H   0  0  0  0  0  0  0  0  0  0  0  0
   18.7365   19.1406   20.5395 H   0  0  0  0  0  0  0  0  0  0  0  0
   17.6977   17.8866   21.9851 C   0  0  0  0  0  0  0  0  0  0  0  0
   17.3626   17.9200   23.0299 H   0  0  0  0  0  0  0  0  0  0  0  0
   16.8171   17.7009   21.3567 H   0  0  0  0  0  0  0  0  0  0  0  0
   18.3722   17.0297   21.8670 H   0  0  0  0  0  0  0  0  0  0  0  0
  1  2  1  0  0  0  0
  1  3  1  0  0  0  0
  1  4  1  0  0  0  0
  1  5  1  0  0  0  0
  5  6  1  0  0  0  0
  5  7  1  0  0  0  0
  5  8  1  0  0  0  0
  8  9  1  0  0  0  0
  8 10  1  0  0  0  0
  8 11  1  0  0  0  0
 11 12  1  0  0  0  0
 11 13  1  0  0  0  0
 11 14  1  0  0  0  0
 14 15  1  0  0  0  0
 14 16  1  0  0  0  0
 14 17  1  0  0  0  0
 17 18  1  0  0  0  0
 17 19  1  0  0  0  0
 17 20  1  0  0  0  0
M  END
> <VConfSearch Rank>
533

> <Conf_Id>
24

> <Delta U+W>
0.847

> <U+W>
-10.931

> <U>
47.080

> <W>
-58.011

> <W(PB)>
-59.914

> <W(SA)>
1.903

> <Valence>
1.943

> <Coulomb>
44.572

> <VdW>
0.565

> <VdW6>
-4.575

> <VdW12>
5.140

> <Bond>
0.158

> <Angle>
0.700

> <Pdih>
1.085

> <Idih>
0.000

> <Tether>
0.000

$$$$
VeraChem MOL file


 20 19  0  0  0  0  0  0  0  0999 V2000     
   21.6290   17.7951   20.6724 N   0  3  0  0  0  0  0  0  0  0  0  0
   22.4977   17.2807   20.8518 H   0  0  0  0  0  0  0  0  0  0  0  0
   20.8867   17.0968   20.5651 H   0  0  0  0  0  0  0  0  0  0  0  0
   21.7403   18.2583   19.7650 H   0  0  0  0  0  0  0  0  0  0  0  0
   21.3211   18.7838   21.7787 C   0  0  0  0  0  0  0  0  0  0  0  0
   22.1630   19.4770   21.8566 H   0  0  0  0  0  0  0  0  0  0  0  0
   21.2466   18.2264   22.7161 H   0  0  0  0  0  0  0  0  0  0  0  0
   20.0204   19.5737   21.5399 C   0  0  0  0  0  0  0  0  0  0  0  0
   20.0895   20.0962   20.5766 H   0  0  0  0  0  0  0  0  0  0  0  0
   19.1759   18.8782   21.4524 H   0  0  0  0  0  0  0  0  0  0  0  0
   19.7375   20.6134   22.6529 C   0  0  0  0  0  0  0  0  0  0  0  0
   18.8066   21.1461   22.4145 H   0  0  0  0  0  0  0  0  0  0  0  0
   20.5315   21.3730   22.6413 H   0  0  0  0  0  0  0  0  0  0  0  0
   19.6322   20.0240   24.0828 C   0  0  0  0  0  0  0  0  0  0  0  0
   20.5909   19.5782   24.3812 H   0  0  0  0  0  0  0  0  0  0  0  0
   19.4504   20.8468   24.7883 H   0  0  0  0  0  0  0  0  0  0  0  0
   18.5033   18.9792   24.2352 C   0  0  0  0  0  0  0  0  0  0  0  0
   18.4106   18.6635   25.2824 H   0  0  0  0  0  0  0  0  0  0  0  0
   17.5363   19.3944   23.9231 H   0  0  0  0  0  0  0  0  0  0  0  0
   18.7019   18.0815   23.6367 H   0  0  0  0  0  0  0  0  0  0  0  0
  1  2  1  0  0  0  0
  1  3  1  0  0  0  0
  1  4  1  0  0  0  0
  1  5  1  0  0  0  0
  5  6  1  0  0  0  0
  5  7  1  0  0  0  0
  5  8  1  0  0  0  0
  8  9  1  0  0  0  0
  8 10  1  0  0  0  0
  8 11  1  0  0  0  0
 11 12  1  0  0  0  0
 11 13  1  0  0  0  0
 11 14  1  0  0  0  0
 14 15  1  0  0  0  0
 14 16  1  0  0  0  0
 14 17  1  0  0  0  0
 17 18  1  0  0  0  0
 17 19  1  0  0  0  0
 17 20  1  0  0  0  0
M  END
> <VConfSearch Rank>
534

> <Conf_Id>
64

> <Delta U+W>
0.707

> <U+W>
-11.070

> <U>
47.077

> <W>
-58.148

> <W(PB)>
-60.054

> <W(SA)>
1.906

> <Valence>
2.039

> <Coulomb>
44.655

> <VdW>
0.383

> <VdW6>
-4.912

> <VdW12>
5.295

> <Bond>
0.159

> <Angle>
0.856

> <Pdih>
1.024

> <Idih>
0.000

> <Tether>
0.000

$$$$
VeraChem MOL file


 20 19  0  0  0  0  0  0  0  0999 V2000     
   21.0295   21.4449   23.5766 N   0  3  0  0  0  0  0  0  0  0  0  0
   20.8310   22.2661   22.9964 H   0  0  0  0  0  0  0  0  0  0  0  0
   20.3006   21.4009   24.2957 H   0  0  0  0  0  0  0  0  0  0  0  0
   21.9142   21.6301   24.0608 H   0  0  0  0  0  0  0  0  0  0  0  0
   21.0924   20.1732   22.7551 C   0  0  0  0  0  0  0  0  0  0  0  0
   21.3364   19.3489   23.4304 H   0  0  0  0  0  0  0  0  0  0  0  0
   21.9058   20.2778   22.0320 H   0  0  0  0  0  0  0  0  0  0  0  0
   19.7774   19.8654   22.0144 C   0  0  0  0  0  0  0  0  0  0  0  0
   18.9585   19.7693   22.7387 H   0  0  0  0  0  0  0  0  0  0  0  0
   19.5203   20.7169   21.3706 H   0  0  0  0  0  0  0  0  0  0  0  0
   19.8656   18.5884   21.1417 C   0  0  0  0  0  0  0  0  0  0  0  0
   20.6035   18.7519   20.3441 H   0  0  0  0  0  0  0  0  0  0  0  0
   18.9025   18.4357   20.6354 H   0  0  0  0  0  0  0  0  0  0  0  0
   20.2429   17.2977   21.9131 C   0  0  0  0  0  0  0  0  0  0  0  0
   20.2947   16.4648   21.1979 H   0  0  0  0  0  0  0  0  0  0  0  0
   21.2510   17.3911   22.3394 H   0  0  0  0  0  0  0  0  0  0  0  0
   19.2382   16.9331   23.0296 C   0  0  0  0  0  0  0  0  0  0  0  0
   18.2179   16.8539   22.6324 H   0  0  0  0  0  0  0  0  0  0  0  0
   19.4985   15.9668   23.4806 H   0  0  0  0  0  0  0  0  0  0  0  0
   19.2382   17.6817   23.8316 H   0  0  0  0  0  0  0  0  0  0  0  0
  1  2  1  0  0  0  0
  1  3  1  0  0  0  0
  1  4  1  0  0  0  0
  1  5  1  0  0  0  0
  5  6  1  0  0  0  0
  5  7  1  0  0  0  0
  5  8  1  0  0  0  0
  8  9  1  0  0  0  0
  8 10  1  0  0  0  0
  8 11  1  0  0  0  0
 11 12  1  0  0  0  0
 11 13  1  0  0  0  0
 11 14  1  0  0  0  0
 14 15  1  0  0  0  0
 14 16  1  0  0  0  0
 14 17  1  0  0  0  0
 17 18  1  0  0  0  0
 17 19  1  0  0  0  0
 17 20  1  0  0  0  0
M  END
> <VConfSearch Rank>
535

> <Conf_Id>
22

> <Delta U+W>
0.731

> <U+W>
-11.047

> <U>
47.078

> <W>
-58.125

> <W(PB)>
-60.031

> <W(SA)>
1.906

> <Valence>
2.039

> <Coulomb>
44.655

> <VdW>
0.383

> <VdW6>
-4.913

> <VdW12>
5.296

> <Bond>
0.159

> <Angle>
0.856

> <Pdih>
1.024

> <Idih>
0.000

> <Tether>
0.000

$$$$
VeraChem MOL file


 20 19  0  0  0  0  0  0  0  0999 V2000     
   18.7001   17.3501   21.0993 N   0  3  0  0  0  0  0  0  0  0  0  0
   17.8422   17.2955   21.6574 H   0  0  0  0  0  0  0  0  0  0  0  0
   18.4315   17.6754   20.1653 H   0  0  0  0  0  0  0  0  0  0  0  0
   19.0463   16.3910   20.9916 H   0  0  0  0  0  0  0  0  0  0  0  0
   19.7348   18.2544   21.7383 C   0  0  0  0  0  0  0  0  0  0  0  0
   20.6283   18.2443   21.1082 H   0  0  0  0  0  0  0  0  0  0  0  0
   19.9908   17.8295   22.7115 H   0  0  0  0  0  0  0  0  0  0  0  0
   19.2432   19.7016   21.9192 C   0  0  0  0  0  0  0  0  0  0  0  0
   18.8774   20.0735   20.9529 H   0  0  0  0  0  0  0  0  0  0  0  0
   18.3828   19.7128   22.6013 H   0  0  0  0  0  0  0  0  0  0  0  0
   20.3318   20.6745   22.4390 C   0  0  0  0  0  0  0  0  0  0  0  0
   19.8978   21.6841   22.4412 H   0  0  0  0  0  0  0  0  0  0  0  0
   21.1725   20.7148   21.7326 H   0  0  0  0  0  0  0  0  0  0  0  0
   20.8486   20.3724   23.8697 C   0  0  0  0  0  0  0  0  0  0  0  0
   21.1805   21.3171   24.3229 H   0  0  0  0  0  0  0  0  0  0  0  0
   20.0278   20.0066   24.5023 H   0  0  0  0  0  0  0  0  0  0  0  0
   22.0386   19.3850   23.9109 C   0  0  0  0  0  0  0  0  0  0  0  0
   21.7625   18.3859   23.5584 H   0  0  0  0  0  0  0  0  0  0  0  0
   22.8714   19.7461   23.2936 H   0  0  0  0  0  0  0  0  0  0  0  0
   22.4100   19.2779   24.9383 H   0  0  0  0  0  0  0  0  0  0  0  0
  1  2  1  0  0  0  0
  1  3  1  0  0  0  0
  1  4  1  0  0  0  0
  1  5  1  0  0  0  0
  5  6  1  0  0  0  0
  5  7  1  0  0  0  0
  5  8  1  0  0  0  0
  8  9  1  0  0  0  0
  8 10  1  0  0  0  0
  8 11  1  0  0  0  0
 11 12  1  0  0  0  0
 11 13  1  0  0  0  0
 11 14  1  0  0  0  0
 14 15  1  0  0  0  0
 14 16  1  0  0  0  0
 14 17  1  0  0  0  0
 17 18  1  0  0  0  0
 17 19  1  0  0  0  0
 17 20  1  0  0  0  0
M  END
> <VConfSearch Rank>
536

> <Conf_Id>
61

> <Delta U+W>
2.669

> <U+W>
-9.108

> <U>
48.916

> <W>
-58.025

> <W(PB)>
-59.935

> <W(SA)>
1.911

> <Valence>
3.785

> <Coulomb>
44.716

> <VdW>
0.415

> <VdW6>
-4.836

> <VdW12>
5.251

> <Bond>
0.175

> <Angle>
1.195

> <Pdih>
2.415

> <Idih>
0.000

> <Tether>
0.000

$$$$
VeraChem MOL file


 20 19  0  0  0  0  0  0  0  0999 V2000     
   22.1927   18.6550   21.4868 N   0  3  0  0  0  0  0  0  0  0  0  0
   22.8291   17.9323   21.1340 H   0  0  0  0  0  0  0  0  0  0  0  0
   22.7088   19.5402   21.4663 H   0  0  0  0  0  0  0  0  0  0  0  0
   22.0055   18.4371   22.4689 H   0  0  0  0  0  0  0  0  0  0  0  0
   20.9174   18.7283   20.6690 C   0  0  0  0  0  0  0  0  0  0  0  0
   20.4401   17.7448   20.6783 H   0  0  0  0  0  0  0  0  0  0  0  0
   21.2121   18.9509   19.6398 H   0  0  0  0  0  0  0  0  0  0  0  0
   19.9162   19.8012   21.1463 C   0  0  0  0  0  0  0  0  0  0  0  0
   20.4488   20.7279   21.3979 H   0  0  0  0  0  0  0  0  0  0  0  0
   19.2643   20.0499   20.2983 H   0  0  0  0  0  0  0  0  0  0  0  0
   19.0121   19.3601   22.3261 C   0  0  0  0  0  0  0  0  0  0  0  0
   18.4431   18.4657   22.0367 H   0  0  0  0  0  0  0  0  0  0  0  0
   18.2695   20.1507   22.5015 H   0  0  0  0  0  0  0  0  0  0  0  0
   19.7694   19.0847   23.6463 C   0  0  0  0  0  0  0  0  0  0  0  0
   20.4085   18.1997   23.5357 H   0  0  0  0  0  0  0  0  0  0  0  0
   20.4244   19.9342   23.8858 H   0  0  0  0  0  0  0  0  0  0  0  0
   18.7962   18.8443   24.8202 C   0  0  0  0  0  0  0  0  0  0  0  0
   19.3488   18.6410   25.7467 H   0  0  0  0  0  0  0  0  0  0  0  0
   18.1610   19.7227   24.9939 H   0  0  0  0  0  0  0  0  0  0  0  0
   18.1433   17.9843   24.6221 H   0  0  0  0  0  0  0  0  0  0  0  0
  1  2  1  0  0  0  0
  1  3  1  0  0  0  0
  1  4  1  0  0  0  0
  1  5  1  0  0  0  0
  5  6  1  0  0  0  0
  5  7  1  0  0  0  0
  5  8  1  0  0  0  0
  8  9  1  0  0  0  0
  8 10  1  0  0  0  0
  8 11  1  0  0  0  0
 11 12  1  0  0  0  0
 11 13  1  0  0  0  0
 11 14  1  0  0  0  0
 14 15  1  0  0  0  0
 14 16  1  0  0  0  0
 14 17  1  0  0  0  0
 17 18  1  0  0  0  0
 17 19  1  0  0  0  0
 17 20  1  0  0  0  0
M  END
> <VConfSearch Rank>
537

> <Conf_Id>
69

> <Delta U+W>
2.811

> <U+W>
-8.967

> <U>
49.216

> <W>
-58.183

> <W(PB)>
-60.064

> <W(SA)>
1.881

> <Valence>
2.929

> <Coulomb>
46.006

> <VdW>
0.281

> <VdW6>
-4.909

> <VdW12>
5.190

> <Bond>
0.156

> <Angle>
0.974

> <Pdih>
1.799

> <Idih>
0.000

> <Tether>
0.000

$$$$
VeraChem MOL file


 20 19  0  0  0  0  0  0  0  0999 V2000     
   20.2533   18.6011   20.2079 N   0  3  0  0  0  0  0  0  0  0  0  0
   20.7866   18.1057   20.9271 H   0  0  0  0  0  0  0  0  0  0  0  0
   19.4515   18.0108   19.9653 H   0  0  0  0  0  0  0  0  0  0  0  0
   20.8476   18.6518   19.3737 H   0  0  0  0  0  0  0  0  0  0  0  0
   19.8182   19.9780   20.6720 C   0  0  0  0  0  0  0  0  0  0  0  0
   19.2711   20.4348   19.8428 H   0  0  0  0  0  0  0  0  0  0  0  0
   20.7107   20.5807   20.8605 H   0  0  0  0  0  0  0  0  0  0  0  0
   18.9161   19.9718   21.9241 C   0  0  0  0  0  0  0  0  0  0  0  0
   18.3466   20.9107   21.9294 H   0  0  0  0  0  0  0  0  0  0  0  0
   18.1711   19.1688   21.8474 H   0  0  0  0  0  0  0  0  0  0  0  0
   19.6807   19.8732   23.2692 C   0  0  0  0  0  0  0  0  0  0  0  0
   18.9543   19.9944   24.0848 H   0  0  0  0  0  0  0  0  0  0  0  0
   20.3800   20.7165   23.3555 H   0  0  0  0  0  0  0  0  0  0  0  0
   20.4463   18.5453   23.4760 C   0  0  0  0  0  0  0  0  0  0  0  0
   19.7772   17.6944   23.2852 H   0  0  0  0  0  0  0  0  0  0  0  0
   21.2768   18.4749   22.7624 H   0  0  0  0  0  0  0  0  0  0  0  0
   21.0167   18.4348   24.9062 C   0  0  0  0  0  0  0  0  0  0  0  0
   20.2145   18.4607   25.6553 H   0  0  0  0  0  0  0  0  0  0  0  0
   21.5647   17.4922   25.0335 H   0  0  0  0  0  0  0  0  0  0  0  0
   21.7101   19.2588   25.1194 H   0  0  0  0  0  0  0  0  0  0  0  0
  1  2  1  0  0  0  0
  1  3  1  0  0  0  0
  1  4  1  0  0  0  0
  1  5  1  0  0  0  0
  5  6  1  0  0  0  0
  5  7  1  0  0  0  0
  5  8  1  0  0  0  0
  8  9  1  0  0  0  0
  8 10  1  0  0  0  0
  8 11  1  0  0  0  0
 11 12  1  0  0  0  0
 11 13  1  0  0  0  0
 11 14  1  0  0  0  0
 14 15  1  0  0  0  0
 14 16  1  0  0  0  0
 14 17  1  0  0  0  0
 17 18  1  0  0  0  0
 17 19  1  0  0  0  0
 17 20  1  0  0  0  0
M  END
> <VConfSearch Rank>
538

> <Conf_Id>
26

> <Delta U+W>
2.809

> <U+W>
-8.969

> <U>
49.216

> <W>
-58.185

> <W(PB)>
-60.088

> <W(SA)>
1.903

> <Valence>
2.929

> <Coulomb>
46.006

> <VdW>
0.281

> <VdW6>
-4.909

> <VdW12>
5.190

> <Bond>
0.156

> <Angle>
0.974

> <Pdih>
1.799

> <Idih>
0.000

> <Tether>
0.000

$$$$
VeraChem MOL file


 20 19  0  0  0  0  0  0  0  0999 V2000     
   20.0150   17.7171   24.3920 N   0  3  0  0  0  0  0  0  0  0  0  0
   19.1805   18.3106   24.4127 H   0  0  0  0  0  0  0  0  0  0  0  0
   19.6986   16.7552   24.2346 H   0  0  0  0  0  0  0  0  0  0  0  0
   20.4276   17.7457   25.3302 H   0  0  0  0  0  0  0  0  0  0  0  0
   20.9981   18.1683   23.3296 C   0  0  0  0  0  0  0  0  0  0  0  0
   21.8722   17.5137   23.3851 H   0  0  0  0  0  0  0  0  0  0  0  0
   21.3195   19.1843   23.5733 H   0  0  0  0  0  0  0  0  0  0  0  0
   20.4233   18.1341   21.8989 C   0  0  0  0  0  0  0  0  0  0  0  0
   21.2192   18.3999   21.1915 H   0  0  0  0  0  0  0  0  0  0  0  0
   20.1352   17.1037   21.6520 H   0  0  0  0  0  0  0  0  0  0  0  0
   19.2042   19.0698   21.6867 C   0  0  0  0  0  0  0  0  0  0  0  0
   18.3552   18.7003   22.2774 H   0  0  0  0  0  0  0  0  0  0  0  0
   18.8864   19.0038   20.6370 H   0  0  0  0  0  0  0  0  0  0  0  0
   19.4556   20.5569   22.0450 C   0  0  0  0  0  0  0  0  0  0  0  0
   18.5263   21.1196   21.8787 H   0  0  0  0  0  0  0  0  0  0  0  0
   19.6813   20.6575   23.1153 H   0  0  0  0  0  0  0  0  0  0  0  0
   20.5855   21.2053   21.2133 C   0  0  0  0  0  0  0  0  0  0  0  0
   20.3920   21.1037   20.1376 H   0  0  0  0  0  0  0  0  0  0  0  0
   20.6640   22.2764   21.4403 H   0  0  0  0  0  0  0  0  0  0  0  0
   21.5591   20.7495   21.4322 H   0  0  0  0  0  0  0  0  0  0  0  0
  1  2  1  0  0  0  0
  1  3  1  0  0  0  0
  1  4  1  0  0  0  0
  1  5  1  0  0  0  0
  5  6  1  0  0  0  0
  5  7  1  0  0  0  0
  5  8  1  0  0  0  0
  8  9  1  0  0  0  0
  8 10  1  0  0  0  0
  8 11  1  0  0  0  0
 11 12  1  0  0  0  0
 11 13  1  0  0  0  0
 11 14  1  0  0  0  0
 14 15  1  0  0  0  0
 14 16  1  0  0  0  0
 14 17  1  0  0  0  0
 17 18  1  0  0  0  0
 17 19  1  0  0  0  0
 17 20  1  0  0  0  0
M  END
> <VConfSearch Rank>
539

> <Conf_Id>
2

> <Delta U+W>
0.994

> <U+W>
-10.784

> <U>
47.562

> <W>
-58.346

> <W(PB)>
-60.221

> <W(SA)>
1.875

> <Valence>
2.149

> <Coulomb>
45.034

> <VdW>
0.378

> <VdW6>
-5.599

> <VdW12>
5.977

> <Bond>
0.185

> <Angle>
0.935

> <Pdih>
1.028

> <Idih>
0.000

> <Tether>
0.000

$$$$
VeraChem MOL file


 20 19  0  0  0  0  0  0  0  0999 V2000     
   19.7702   16.7250   22.0950 N   0  3  0  0  0  0  0  0  0  0  0  0
   19.7190   16.1234   22.9229 H   0  0  0  0  0  0  0  0  0  0  0  0
   18.8675   17.2013   22.0106 H   0  0  0  0  0  0  0  0  0  0  0  0
   19.8613   16.1068   21.2821 H   0  0  0  0  0  0  0  0  0  0  0  0
   20.9185   17.7111   22.1849 C   0  0  0  0  0  0  0  0  0  0  0  0
   20.9372   18.2962   21.2617 H   0  0  0  0  0  0  0  0  0  0  0  0
   21.8472   17.1366   22.2410 H   0  0  0  0  0  0  0  0  0  0  0  0
   20.8285   18.6581   23.3987 C   0  0  0  0  0  0  0  0  0  0  0  0
   20.8447   18.0625   24.3210 H   0  0  0  0  0  0  0  0  0  0  0  0
   21.7315   19.2812   23.4290 H   0  0  0  0  0  0  0  0  0  0  0  0
   19.5698   19.5651   23.3988 C   0  0  0  0  0  0  0  0  0  0  0  0
   19.6089   20.2239   24.2773 H   0  0  0  0  0  0  0  0  0  0  0  0
   18.6742   18.9439   23.5335 H   0  0  0  0  0  0  0  0  0  0  0  0
   19.3928   20.4319   22.1258 C   0  0  0  0  0  0  0  0  0  0  0  0
   19.2546   19.7904   21.2450 H   0  0  0  0  0  0  0  0  0  0  0  0
   18.4653   21.0134   22.2238 H   0  0  0  0  0  0  0  0  0  0  0  0
   20.5671   21.4060   21.8792 C   0  0  0  0  0  0  0  0  0  0  0  0
   21.4980   20.8677   21.6617 H   0  0  0  0  0  0  0  0  0  0  0  0
   20.3537   22.0562   21.0210 H   0  0  0  0  0  0  0  0  0  0  0  0
   20.7372   22.0486   22.7528 H   0  0  0  0  0  0  0  0  0  0  0  0
  1  2  1  0  0  0  0
  1  3  1  0  0  0  0
  1  4  1  0  0  0  0
  1  5  1  0  0  0  0
  5  6  1  0  0  0  0
  5  7  1  0  0  0  0
  5  8  1  0  0  0  0
  8  9  1  0  0  0  0
  8 10  1  0  0  0  0
  8 11  1  0  0  0  0
 11 12  1  0  0  0  0
 11 13  1  0  0  0  0
 11 14  1  0  0  0  0
 14 15  1  0  0  0  0
 14 16  1  0  0  0  0
 14 17  1  0  0  0  0
 17 18  1  0  0  0  0
 17 19  1  0  0  0  0
 17 20  1  0  0  0  0
M  END
> <VConfSearch Rank>
540

> <Conf_Id>
1

> <Delta U+W>
1.032

> <U+W>
-10.746

> <U>
47.562

> <W>
-58.308

> <W(PB)>
-60.184

> <W(SA)>
1.877

> <Valence>
2.149

> <Coulomb>
45.035

> <VdW>
0.378

> <VdW6>
-5.599

> <VdW12>
5.978

> <Bond>
0.185

> <Angle>
0.935

> <Pdih>
1.028

> <Idih>
0.000

> <Tether>
0.000

$$$$
VeraChem MOL file


 20 19  0  0  0  0  0  0  0  0999 V2000     
   19.5913   20.8486   23.9136 N   0  3  0  0  0  0  0  0  0  0  0  0
   20.1380   21.0172   24.7638 H   0  0  0  0  0  0  0  0  0  0  0  0
   20.1124   21.2573   23.1325 H   0  0  0  0  0  0  0  0  0  0  0  0
   18.7223   21.3849   24.0069 H   0  0  0  0  0  0  0  0  0  0  0  0
   19.3213   19.3718   23.6998 C   0  0  0  0  0  0  0  0  0  0  0  0
   18.7126   19.2681   22.8002 H   0  0  0  0  0  0  0  0  0  0  0  0
   18.7289   19.0200   24.5488 H   0  0  0  0  0  0  0  0  0  0  0  0
   20.5997   18.5143   23.5852 C   0  0  0  0  0  0  0  0  0  0  0  0
   21.1867   18.6542   24.5027 H   0  0  0  0  0  0  0  0  0  0  0  0
   20.3242   17.4517   23.5642 H   0  0  0  0  0  0  0  0  0  0  0  0
   21.4957   18.8441   22.3610 C   0  0  0  0  0  0  0  0  0  0  0  0
   22.5172   18.5118   22.5925 H   0  0  0  0  0  0  0  0  0  0  0  0
   21.5679   19.9295   22.2149 H   0  0  0  0  0  0  0  0  0  0  0  0
   21.0751   18.1581   21.0356 C   0  0  0  0  0  0  0  0  0  0  0  0
   21.8309   18.3910   20.2724 H   0  0  0  0  0  0  0  0  0  0  0  0
   21.0973   17.0664   21.1599 H   0  0  0  0  0  0  0  0  0  0  0  0
   19.6905   18.5861   20.5010 C   0  0  0  0  0  0  0  0  0  0  0  0
   19.5940   19.6791   20.4727 H   0  0  0  0  0  0  0  0  0  0  0  0
   19.5426   18.2103   19.4803 H   0  0  0  0  0  0  0  0  0  0  0  0
   18.8807   18.1763   21.1160 H   0  0  0  0  0  0  0  0  0  0  0  0
  1  2  1  0  0  0  0
  1  3  1  0  0  0  0
  1  4  1  0  0  0  0
  1  5  1  0  0  0  0
  5  6  1  0  0  0  0
  5  7  1  0  0  0  0
  5  8  1  0  0  0  0
  8  9  1  0  0  0  0
  8 10  1  0  0  0  0
  8 11  1  0  0  0  0
 11 12  1  0  0  0  0
 11 13  1  0  0  0  0
 11 14  1  0  0  0  0
 14 15  1  0  0  0  0
 14 16  1  0  0  0  0
 14 17  1  0  0  0  0
 17 18  1  0  0  0  0
 17 19  1  0  0  0  0
 17 20  1  0  0  0  0
M  END
> <VConfSearch Rank>
541

> <Conf_Id>
80

> <Delta U+W>
2.920

> <U+W>
-8.857

> <U>
49.434

> <W>
-58.292

> <W(PB)>
-60.170

> <W(SA)>
1.879

> <Valence>
3.798

> <Coulomb>
45.253

> <VdW>
0.384

> <VdW6>
-5.595

> <VdW12>
5.979

> <Bond>
0.198

> <Angle>
1.368

> <Pdih>
2.231

> <Idih>
0.000

> <Tether>
0.000

$$$$
VeraChem MOL file


 20 19  0  0  0  0  0  0  0  0999 V2000     
   18.3596   17.7984   22.1595 N   0  3  0  0  0  0  0  0  0  0  0  0
   17.5683   17.8628   22.8074 H   0  0  0  0  0  0  0  0  0  0  0  0
   18.0443   17.2413   21.3585 H   0  0  0  0  0  0  0  0  0  0  0  0
   19.0924   17.2588   22.6291 H   0  0  0  0  0  0  0  0  0  0  0  0
   18.8532   19.1676   21.7335 C   0  0  0  0  0  0  0  0  0  0  0  0
   18.0334   19.6626   21.2058 H   0  0  0  0  0  0  0  0  0  0  0  0
   19.6705   19.0249   21.0249 H   0  0  0  0  0  0  0  0  0  0  0  0
   19.3099   20.0591   22.9080 C   0  0  0  0  0  0  0  0  0  0  0  0
   19.5264   21.0689   22.5352 H   0  0  0  0  0  0  0  0  0  0  0  0
   18.4646   20.1695   23.6002 H   0  0  0  0  0  0  0  0  0  0  0  0
   20.5355   19.5205   23.6942 C   0  0  0  0  0  0  0  0  0  0  0  0
   20.4502   18.4374   23.8502 H   0  0  0  0  0  0  0  0  0  0  0  0
   20.5111   19.9632   24.6996 H   0  0  0  0  0  0  0  0  0  0  0  0
   21.9149   19.8592   23.0727 C   0  0  0  0  0  0  0  0  0  0  0  0
   22.0344   20.9497   23.0073 H   0  0  0  0  0  0  0  0  0  0  0  0
   22.6976   19.5099   23.7607 H   0  0  0  0  0  0  0  0  0  0  0  0
   22.1666   19.2308   21.6842 C   0  0  0  0  0  0  0  0  0  0  0  0
   21.5592   19.7149   20.9105 H   0  0  0  0  0  0  0  0  0  0  0  0
   23.2179   19.3549   21.3939 H   0  0  0  0  0  0  0  0  0  0  0  0
   21.9444   18.1559   21.6864 H   0  0  0  0  0  0  0  0  0  0  0  0
  1  2  1  0  0  0  0
  1  3  1  0  0  0  0
  1  4  1  0  0  0  0
  1  5  1  0  0  0  0
  5  6  1  0  0  0  0
  5  7  1  0  0  0  0
  5  8  1  0  0  0  0
  8  9  1  0  0  0  0
  8 10  1  0  0  0  0
  8 11  1  0  0  0  0
 11 12  1  0  0  0  0
 11 13  1  0  0  0  0
 11 14  1  0  0  0  0
 14 15  1  0  0  0  0
 14 16  1  0  0  0  0
 14 17  1  0  0  0  0
 17 18  1  0  0  0  0
 17 19  1  0  0  0  0
 17 20  1  0  0  0  0
M  END
> <VConfSearch Rank>
542

> <Conf_Id>
65

> <Delta U+W>
2.949

> <U+W>
-8.829

> <U>
49.435

> <W>
-58.263

> <W(PB)>
-60.125

> <W(SA)>
1.862

> <Valence>
3.797

> <Coulomb>
45.253

> <VdW>
0.384

> <VdW6>
-5.596

> <VdW12>
5.980

> <Bond>
0.198

> <Angle>
1.369

> <Pdih>
2.230

> <Idih>
0.000

> <Tether>
0.000

$$$$
VeraChem MOL file


 20 19  0  0  0  0  0  0  0  0999 V2000     
   18.8113   20.6887   22.1765 N   0  3  0  0  0  0  0  0  0  0  0  0
   18.5736   21.3655   21.4436 H   0  0  0  0  0  0  0  0  0  0  0  0
   18.6687   19.7523   21.7862 H   0  0  0  0  0  0  0  0  0  0  0  0
   18.1274   20.8127   22.9297 H   0  0  0  0  0  0  0  0  0  0  0  0
   20.2329   20.8706   22.6721 C   0  0  0  0  0  0  0  0  0  0  0  0
   20.3042   21.8856   23.0724 H   0  0  0  0  0  0  0  0  0  0  0  0
   20.9139   20.7935   21.8203 H   0  0  0  0  0  0  0  0  0  0  0  0
   20.6479   19.8673   23.7673 C   0  0  0  0  0  0  0  0  0  0  0  0
   21.4755   20.3149   24.3335 H   0  0  0  0  0  0  0  0  0  0  0  0
   19.8279   19.7419   24.4867 H   0  0  0  0  0  0  0  0  0  0  0  0
   21.1228   18.4828   23.2501 C   0  0  0  0  0  0  0  0  0  0  0  0
   21.4365   17.8958   24.1245 H   0  0  0  0  0  0  0  0  0  0  0  0
   22.0273   18.6019   22.6375 H   0  0  0  0  0  0  0  0  0  0  0  0
   20.0610   17.6604   22.4763 C   0  0  0  0  0  0  0  0  0  0  0  0
   20.2032   16.5961   22.7113 H   0  0  0  0  0  0  0  0  0  0  0  0
   19.0508   17.9080   22.8294 H   0  0  0  0  0  0  0  0  0  0  0  0
   20.1663   17.8234   20.9413 C   0  0  0  0  0  0  0  0  0  0  0  0
   20.1057   18.8704   20.6254 H   0  0  0  0  0  0  0  0  0  0  0  0
   21.1216   17.4247   20.5756 H   0  0  0  0  0  0  0  0  0  0  0  0
   19.3632   17.2699   20.4374 H   0  0  0  0  0  0  0  0  0  0  0  0
  1  2  1  0  0  0  0
  1  3  1  0  0  0  0
  1  4  1  0  0  0  0
  1  5  1  0  0  0  0
  5  6  1  0  0  0  0
  5  7  1  0  0  0  0
  5  8  1  0  0  0  0
  8  9  1  0  0  0  0
  8 10  1  0  0  0  0
  8 11  1  0  0  0  0
 11 12  1  0  0  0  0
 11 13  1  0  0  0  0
 11 14  1  0  0  0  0
 14 15  1  0  0  0  0
 14 16  1  0  0  0  0
 14 17  1  0  0  0  0
 17 18  1  0  0  0  0
 17 19  1  0  0  0  0
 17 20  1  0  0  0  0
M  END
> <VConfSearch Rank>
543

> <Conf_Id>
77

> <Delta U+W>
5.366

> <U+W>
-6.412

> <U>
51.542

> <W>
-57.954

> <W(PB)>
-59.811

> <W(SA)>
1.857

> <Valence>
5.347

> <Coulomb>
45.870

> <VdW>
0.325

> <VdW6>
-6.161

> <VdW12>
6.486

> <Bond>
0.201

> <Angle>
1.484

> <Pdih>
3.662

> <Idih>
0.000

> <Tether>
0.000

$$$$
VeraChem MOL file


 20 19  0  0  0  0  0  0  0  0999 V2000     
   19.6216   17.2875   23.1701 N   0  3  0  0  0  0  0  0  0  0  0  0
   19.4485   17.2659   24.1801 H   0  0  0  0  0  0  0  0  0  0  0  0
   18.9603   17.9550   22.7616 H   0  0  0  0  0  0  0  0  0  0  0  0
   19.3830   16.3587   22.8068 H   0  0  0  0  0  0  0  0  0  0  0  0
   21.0556   17.6654   22.8532 C   0  0  0  0  0  0  0  0  0  0  0  0
   21.2022   17.6093   21.7713 H   0  0  0  0  0  0  0  0  0  0  0  0
   21.6953   16.9125   23.3216 H   0  0  0  0  0  0  0  0  0  0  0  0
   21.4635   19.0617   23.3654 C   0  0  0  0  0  0  0  0  0  0  0  0
   21.0658   19.2174   24.3771 H   0  0  0  0  0  0  0  0  0  0  0  0
   22.5566   19.0725   23.4698 H   0  0  0  0  0  0  0  0  0  0  0  0
   21.0643   20.2464   22.4451 C   0  0  0  0  0  0  0  0  0  0  0  0
   21.5741   20.1559   21.4759 H   0  0  0  0  0  0  0  0  0  0  0  0
   21.4617   21.1641   22.9006 H   0  0  0  0  0  0  0  0  0  0  0  0
   19.5415   20.4387   22.2292 C   0  0  0  0  0  0  0  0  0  0  0  0
   18.9811   20.0806   23.1032 H   0  0  0  0  0  0  0  0  0  0  0  0
   19.3306   21.5156   22.1643 H   0  0  0  0  0  0  0  0  0  0  0  0
   19.0235   19.7768   20.9302 C   0  0  0  0  0  0  0  0  0  0  0  0
   17.9348   19.8896   20.8460 H   0  0  0  0  0  0  0  0  0  0  0  0
   19.4736   20.2523   20.0489 H   0  0  0  0  0  0  0  0  0  0  0  0
   19.2580   18.7081   20.8816 H   0  0  0  0  0  0  0  0  0  0  0  0
  1  2  1  0  0  0  0
  1  3  1  0  0  0  0
  1  4  1  0  0  0  0
  1  5  1  0  0  0  0
  5  6  1  0  0  0  0
  5  7  1  0  0  0  0
  5  8  1  0  0  0  0
  8  9  1  0  0  0  0
  8 10  1  0  0  0  0
  8 11  1  0  0  0  0
 11 12  1  0  0  0  0
 11 13  1  0  0  0  0
 11 14  1  0  0  0  0
 14 15  1  0  0  0  0
 14 16  1  0  0  0  0
 14 17  1  0  0  0  0
 17 18  1  0  0  0  0
 17 19  1  0  0  0  0
 17 20  1  0  0  0  0
M  END
> <VConfSearch Rank>
544

> <Conf_Id>
67

> <Delta U+W>
5.353

> <U+W>
-6.425

> <U>
51.541

> <W>
-57.966

> <W(PB)>
-59.821

> <W(SA)>
1.855

> <Valence>
5.347

> <Coulomb>
45.870

> <VdW>
0.325

> <VdW6>
-6.161

> <VdW12>
6.486

> <Bond>
0.201

> <Angle>
1.485

> <Pdih>
3.662

> <Idih>
0.000

> <Tether>
0.000

$$$$
VeraChem MOL file


 20 19  0  0  0  0  0  0  0  0999 V2000     
   22.7156   19.9367   24.2272 N   0  3  0  0  0  0  0  0  0  0  0  0
   22.6595   19.1800   24.9161 H   0  0  0  0  0  0  0  0  0  0  0  0
   23.7119   20.1200   24.0676 H   0  0  0  0  0  0  0  0  0  0  0  0
   22.3264   20.7757   24.6688 H   0  0  0  0  0  0  0  0  0  0  0  0
   21.9944   19.5868   22.9412 C   0  0  0  0  0  0  0  0  0  0  0  0
   22.4787   18.7057   22.5115 H   0  0  0  0  0  0  0  0  0  0  0  0
   22.1204   20.4211   22.2458 H   0  0  0  0  0  0  0  0  0  0  0  0
   20.4950   19.3054   23.1459 C   0  0  0  0  0  0  0  0  0  0  0  0
   20.3728   18.4775   23.8570 H   0  0  0  0  0  0  0  0  0  0  0  0
   20.0158   20.1870   23.5922 H   0  0  0  0  0  0  0  0  0  0  0  0
   19.7981   18.9533   21.8128 C   0  0  0  0  0  0  0  0  0  0  0  0
   20.2834   18.0740   21.3664 H   0  0  0  0  0  0  0  0  0  0  0  0
   19.9267   19.7815   21.1019 H   0  0  0  0  0  0  0  0  0  0  0  0
   18.2917   18.6685   22.0062 C   0  0  0  0  0  0  0  0  0  0  0  0
   18.1586   17.8392   22.7151 H   0  0  0  0  0  0  0  0  0  0  0  0
   17.8019   19.5464   22.4505 H   0  0  0  0  0  0  0  0  0  0  0  0
   17.5997   18.3171   20.6718 C   0  0  0  0  0  0  0  0  0  0  0  0
   18.0455   17.4217   20.2194 H   0  0  0  0  0  0  0  0  0  0  0  0
   16.5317   18.1183   20.8295 H   0  0  0  0  0  0  0  0  0  0  0  0
   17.6859   19.1422   19.9528 H   0  0  0  0  0  0  0  0  0  0  0  0
  1  2  1  0  0  0  0
  1  3  1  0  0  0  0
  1  4  1  0  0  0  0
  1  5  1  0  0  0  0
  5  6  1  0  0  0  0
  5  7  1  0  0  0  0
  5  8  1  0  0  0  0
  8  9  1  0  0  0  0
  8 10  1  0  0  0  0
  8 11  1  0  0  0  0
 11 12  1  0  0  0  0
 11 13  1  0  0  0  0
 11 14  1  0  0  0  0
 14 15  1  0  0  0  0
 14 16  1  0  0  0  0
 14 17  1  0  0  0  0
 17 18  1  0  0  0  0
 17 19  1  0  0  0  0
 17 20  1  0  0  0  0
M  END
> <VConfSearch Rank>
545

> <Conf_Id>
72

> <Delta U+W>
0.000

> <U+W>
-11.778

> <U>
45.772

> <W>
-57.550

> <W(PB)>
-59.511

> <W(SA)>
1.961

> <Valence>
1.299

> <Coulomb>
44.177

> <VdW>
0.297

> <VdW6>
-3.490

> <VdW12>
3.786

> <Bond>
0.096

> <Angle>
0.381

> <Pdih>
0.822

> <Idih>
0.000

> <Tether>
0.000

$$$$
VeraChem MOL file


 20 19  0  0  0  0  0  0  0  0999 V2000     
   18.1953   17.1507   21.3504 N   0  3  0  0  0  0  0  0  0  0  0  0
   17.4430   17.4798   21.9635 H   0  0  0  0  0  0  0  0  0  0  0  0
   18.0540   17.5922   20.4363 H   0  0  0  0  0  0  0  0  0  0  0  0
   18.0527   16.1437   21.2191 H   0  0  0  0  0  0  0  0  0  0  0  0
   19.5657   17.4555   21.9210 C   0  0  0  0  0  0  0  0  0  0  0  0
   20.3146   17.0516   21.2342 H   0  0  0  0  0  0  0  0  0  0  0  0
   19.6579   16.9314   22.8761 H   0  0  0  0  0  0  0  0  0  0  0  0
   19.8132   18.9602   22.1302 C   0  0  0  0  0  0  0  0  0  0  0  0
   19.7040   19.4846   21.1716 H   0  0  0  0  0  0  0  0  0  0  0  0
   19.0461   19.3582   22.8063 H   0  0  0  0  0  0  0  0  0  0  0  0
   21.2225   19.2245   22.7108 C   0  0  0  0  0  0  0  0  0  0  0  0
   21.9718   18.7527   22.0599 H   0  0  0  0  0  0  0  0  0  0  0  0
   21.3160   18.7380   23.6917 H   0  0  0  0  0  0  0  0  0  0  0  0
   21.5636   20.7287   22.8445 C   0  0  0  0  0  0  0  0  0  0  0  0
   22.6114   20.8258   23.1619 H   0  0  0  0  0  0  0  0  0  0  0  0
   21.4947   21.2145   21.8611 H   0  0  0  0  0  0  0  0  0  0  0  0
   20.6654   21.4752   23.8572 C   0  0  0  0  0  0  0  0  0  0  0  0
   20.6946   20.9921   24.8425 H   0  0  0  0  0  0  0  0  0  0  0  0
   21.0060   22.5113   23.9817 H   0  0  0  0  0  0  0  0  0  0  0  0
   19.6216   21.5101   23.5217 H   0  0  0  0  0  0  0  0  0  0  0  0
  1  2  1  0  0  0  0
  1  3  1  0  0  0  0
  1  4  1  0  0  0  0
  1  5  1  0  0  0  0
  5  6  1  0  0  0  0
  5  7  1  0  0  0  0
  5  8  1  0  0  0  0
  8  9  1  0  0  0  0
  8 10  1  0  0  0  0
  8 11  1  0  0  0  0
 11 12  1  0  0  0  0
 11 13  1  0  0  0  0
 11 14  1  0  0  0  0
 14 15  1  0  0  0  0
 14 16  1  0  0  0  0
 14 17  1  0  0  0  0
 17 18  1  0  0  0  0
 17 19  1  0  0  0  0
 17 20  1  0  0  0  0
M  END
> <VConfSearch Rank>
546

> <Conf_Id>
42

> <Delta U+W>
0.508

> <U+W>
-11.270

> <U>
46.486

> <W>
-57.756

> <W(PB)>
-59.705

> <W(SA)>
1.949

> <Valence>
1.806

> <Coulomb>
44.248

> <VdW>
0.433

> <VdW6>
-4.089

> <VdW12>
4.522

> <Bond>
0.131

> <Angle>
0.628

> <Pdih>
1.047

> <Idih>
0.000

> <Tether>
0.000

$$$$
VeraChem MOL file


 20 19  0  0  0  0  0  0  0  0999 V2000     
   18.9298   21.7921   22.2924 N   0  3  0  0  0  0  0  0  0  0  0  0
   19.6352   22.2959   22.8392 H   0  0  0  0  0  0  0  0  0  0  0  0
   19.1996   21.8711   21.3068 H   0  0  0  0  0  0  0  0  0  0  0  0
   18.0480   22.3043   22.4010 H   0  0  0  0  0  0  0  0  0  0  0  0
   18.7992   20.3472   22.7302 C   0  0  0  0  0  0  0  0  0  0  0  0
   18.0134   19.8820   22.1289 H   0  0  0  0  0  0  0  0  0  0  0  0
   18.4811   20.3391   23.7762 H   0  0  0  0  0  0  0  0  0  0  0  0
   20.1067   19.5489   22.5804 C   0  0  0  0  0  0  0  0  0  0  0  0
   20.4257   19.5787   21.5309 H   0  0  0  0  0  0  0  0  0  0  0  0
   20.8969   20.0285   23.1731 H   0  0  0  0  0  0  0  0  0  0  0  0
   19.9280   18.0827   23.0403 C   0  0  0  0  0  0  0  0  0  0  0  0
   19.1698   17.5889   22.4167 H   0  0  0  0  0  0  0  0  0  0  0  0
   19.5357   18.0750   24.0668 H   0  0  0  0  0  0  0  0  0  0  0  0
   21.2396   17.2608   23.0083 C   0  0  0  0  0  0  0  0  0  0  0  0
   21.9934   17.7383   23.6498 H   0  0  0  0  0  0  0  0  0  0  0  0
   21.0465   16.2714   23.4461 H   0  0  0  0  0  0  0  0  0  0  0  0
   21.8125   17.0723   21.5850 C   0  0  0  0  0  0  0  0  0  0  0  0
   22.1342   18.0265   21.1497 H   0  0  0  0  0  0  0  0  0  0  0  0
   22.6871   16.4094   21.6077 H   0  0  0  0  0  0  0  0  0  0  0  0
   21.0680   16.6220   20.9157 H   0  0  0  0  0  0  0  0  0  0  0  0
  1  2  1  0  0  0  0
  1  3  1  0  0  0  0
  1  4  1  0  0  0  0
  1  5  1  0  0  0  0
  5  6  1  0  0  0  0
  5  7  1  0  0  0  0
  5  8  1  0  0  0  0
  8  9  1  0  0  0  0
  8 10  1  0  0  0  0
  8 11  1  0  0  0  0
 11 12  1  0  0  0  0
 11 13  1  0  0  0  0
 11 14  1  0  0  0  0
 14 15  1  0  0  0  0
 14 16  1  0  0  0  0
 14 17  1  0  0  0  0
 17 18  1  0  0  0  0
 17 19  1  0  0  0  0
 17 20  1  0  0  0  0
M  END
> <VConfSearch Rank>
547

> <Conf_Id>
41

> <Delta U+W>
0.515

> <U+W>
-11.263

> <U>
46.486

> <W>
-57.749

> <W(PB)>
-59.685

> <W(SA)>
1.936

> <Valence>
1.806

> <Coulomb>
44.248

> <VdW>
0.433

> <VdW6>
-4.089

> <VdW12>
4.522

> <Bond>
0.131

> <Angle>
0.628

> <Pdih>
1.047

> <Idih>
0.000

> <Tether>
0.000

$$$$
VeraChem MOL file


 20 19  0  0  0  0  0  0  0  0999 V2000     
   17.8470   19.7447   21.0552 N   0  3  0  0  0  0  0  0  0  0  0  0
   16.8689   20.0495   21.0136 H   0  0  0  0  0  0  0  0  0  0  0  0
   18.4253   20.5783   20.9150 H   0  0  0  0  0  0  0  0  0  0  0  0
   18.0017   19.1298   20.2500 H   0  0  0  0  0  0  0  0  0  0  0  0
   18.1646   19.0502   22.3655 C   0  0  0  0  0  0  0  0  0  0  0  0
   17.4817   18.2019   22.4638 H   0  0  0  0  0  0  0  0  0  0  0  0
   17.9571   19.7494   23.1800 H   0  0  0  0  0  0  0  0  0  0  0  0
   19.6183   18.5484   22.4704 C   0  0  0  0  0  0  0  0  0  0  0  0
   19.7087   17.9640   23.3944 H   0  0  0  0  0  0  0  0  0  0  0  0
   19.8290   17.8600   21.6413 H   0  0  0  0  0  0  0  0  0  0  0  0
   20.6511   19.7036   22.4782 C   0  0  0  0  0  0  0  0  0  0  0  0
   20.4479   20.3755   23.3236 H   0  0  0  0  0  0  0  0  0  0  0  0
   20.5317   20.3068   21.5685 H   0  0  0  0  0  0  0  0  0  0  0  0
   22.1194   19.2173   22.5459 C   0  0  0  0  0  0  0  0  0  0  0  0
   22.3316   18.5555   21.6945 H   0  0  0  0  0  0  0  0  0  0  0  0
   22.7834   20.0857   22.4321 H   0  0  0  0  0  0  0  0  0  0  0  0
   22.4694   18.4943   23.8667 C   0  0  0  0  0  0  0  0  0  0  0  0
   21.9204   17.5502   23.9686 H   0  0  0  0  0  0  0  0  0  0  0  0
   23.5406   18.2572   23.9022 H   0  0  0  0  0  0  0  0  0  0  0  0
   22.2367   19.1237   24.7355 H   0  0  0  0  0  0  0  0  0  0  0  0
  1  2  1  0  0  0  0
  1  3  1  0  0  0  0
  1  4  1  0  0  0  0
  1  5  1  0  0  0  0
  5  6  1  0  0  0  0
  5  7  1  0  0  0  0
  5  8  1  0  0  0  0
  8  9  1  0  0  0  0
  8 10  1  0  0  0  0
  8 11  1  0  0  0  0
 11 12  1  0  0  0  0
 11 13  1  0  0  0  0
 11 14  1  0  0  0  0
 14 15  1  0  0  0  0
 14 16  1  0  0  0  0
 14 17  1  0  0  0  0
 17 18  1  0  0  0  0
 17 19  1  0  0  0  0
 17 20  1  0  0  0  0
M  END
> <VConfSearch Rank>
548

> <Conf_Id>
33

> <Delta U+W>
0.703

> <U+W>
-11.075

> <U>
47.080

> <W>
-58.154

> <W(PB)>
-60.053

> <W(SA)>
1.899

> <Valence>
1.943

> <Coulomb>
44.572

> <VdW>
0.565

> <VdW6>
-4.575

> <VdW12>
5.139

> <Bond>
0.158

> <Angle>
0.700

> <Pdih>
1.085

> <Idih>
0.000

> <Tether>
0.000

$$$$
VeraChem MOL file


 20 19  0  0  0  0  0  0  0  0999 V2000     
   19.3054   18.9180   25.0901 N   0  3  0  0  0  0  0  0  0  0  0  0
   18.5672   18.8824   25.8008 H   0  0  0  0  0  0  0  0  0  0  0  0
   20.0928   18.3703   25.4510 H   0  0  0  0  0  0  0  0  0  0  0  0
   19.6159   19.8922   25.0313 H   0  0  0  0  0  0  0  0  0  0  0  0
   18.8221   18.3970   23.7503 C   0  0  0  0  0  0  0  0  0  0  0  0
   17.9713   19.0071   23.4350 H   0  0  0  0  0  0  0  0  0  0  0  0
   18.4684   17.3735   23.9019 H   0  0  0  0  0  0  0  0  0  0  0  0
   19.9019   18.4049   22.6504 C   0  0  0  0  0  0  0  0  0  0  0  0
   20.7621   17.8057   22.9771 H   0  0  0  0  0  0  0  0  0  0  0  0
   19.4880   17.9041   21.7663 H   0  0  0  0  0  0  0  0  0  0  0  0
   20.3626   19.8357   22.2742 C   0  0  0  0  0  0  0  0  0  0  0  0
   20.7420   20.3449   23.1699 H   0  0  0  0  0  0  0  0  0  0  0  0
   19.5007   20.4223   21.9269 H   0  0  0  0  0  0  0  0  0  0  0  0
   21.4737   19.8622   21.1963 C   0  0  0  0  0  0  0  0  0  0  0  0
   21.8196   20.8981   21.0728 H   0  0  0  0  0  0  0  0  0  0  0  0
   22.3436   19.2880   21.5448 H   0  0  0  0  0  0  0  0  0  0  0  0
   21.0127   19.3255   19.8219 C   0  0  0  0  0  0  0  0  0  0  0  0
   20.1241   19.8627   19.4656 H   0  0  0  0  0  0  0  0  0  0  0  0
   21.8052   19.4556   19.0736 H   0  0  0  0  0  0  0  0  0  0  0  0
   20.7741   18.2557   19.8650 H   0  0  0  0  0  0  0  0  0  0  0  0
  1  2  1  0  0  0  0
  1  3  1  0  0  0  0
  1  4  1  0  0  0  0
  1  5  1  0  0  0  0
  5  6  1  0  0  0  0
  5  7  1  0  0  0  0
  5  8  1  0  0  0  0
  8  9  1  0  0  0  0
  8 10  1  0  0  0  0
  8 11  1  0  0  0  0
 11 12  1  0  0  0  0
 11 13  1  0  0  0  0
 11 14  1  0  0  0  0
 14 15  1  0  0  0  0
 14 16  1  0  0  0  0
 14 17  1  0  0  0  0
 17 18  1  0  0  0  0
 17 19  1  0  0  0  0
 17 20  1  0  0  0  0
M  END
> <VConfSearch Rank>
549

> <Conf_Id>
24

> <Delta U+W>
0.847

> <U+W>
-10.931

> <U>
47.080

> <W>
-58.011

> <W(PB)>
-59.914

> <W(SA)>
1.903

> <Valence>
1.943

> <Coulomb>
44.572

> <VdW>
0.565

> <VdW6>
-4.575

> <VdW12>
5.140

> <Bond>
0.158

> <Angle>
0.700

> <Pdih>
1.085

> <Idih>
0.000

> <Tether>
0.000

$$$$
VeraChem MOL file


 20 19  0  0  0  0  0  0  0  0999 V2000     
   19.0964   18.0899   20.2074 N   0  3  0  0  0  0  0  0  0  0  0  0
   19.6187   17.6676   19.4326 H   0  0  0  0  0  0  0  0  0  0  0  0
   18.6821   17.3195   20.7415 H   0  0  0  0  0  0  0  0  0  0  0  0
   18.3230   18.6180   19.7912 H   0  0  0  0  0  0  0  0  0  0  0  0
   19.9806   18.9667   21.0710 C   0  0  0  0  0  0  0  0  0  0  0  0
   20.4098   19.7451   20.4343 H   0  0  0  0  0  0  0  0  0  0  0  0
   20.7959   18.3475   21.4542 H   0  0  0  0  0  0  0  0  0  0  0  0
   19.2259   19.6165   22.2460 C   0  0  0  0  0  0  0  0  0  0  0  0
   18.3846   20.2022   21.8524 H   0  0  0  0  0  0  0  0  0  0  0  0
   18.7870   18.8362   22.8807 H   0  0  0  0  0  0  0  0  0  0  0  0
   20.1272   20.5464   23.0964 C   0  0  0  0  0  0  0  0  0  0  0  0
   19.5254   20.9834   23.9053 H   0  0  0  0  0  0  0  0  0  0  0  0
   20.4556   21.3908   22.4745 H   0  0  0  0  0  0  0  0  0  0  0  0
   21.3765   19.8614   23.7073 C   0  0  0  0  0  0  0  0  0  0  0  0
   22.0450   19.5101   22.9095 H   0  0  0  0  0  0  0  0  0  0  0  0
   21.9481   20.6130   24.2697 H   0  0  0  0  0  0  0  0  0  0  0  0
   21.0332   18.6875   24.6524 C   0  0  0  0  0  0  0  0  0  0  0  0
   21.9426   18.2990   25.1289 H   0  0  0  0  0  0  0  0  0  0  0  0
   20.3485   19.0084   25.4481 H   0  0  0  0  0  0  0  0  0  0  0  0
   20.5651   17.8570   24.1095 H   0  0  0  0  0  0  0  0  0  0  0  0
  1  2  1  0  0  0  0
  1  3  1  0  0  0  0
  1  4  1  0  0  0  0
  1  5  1  0  0  0  0
  5  6  1  0  0  0  0
  5  7  1  0  0  0  0
  5  8  1  0  0  0  0
  8  9  1  0  0  0  0
  8 10  1  0  0  0  0
  8 11  1  0  0  0  0
 11 12  1  0  0  0  0
 11 13  1  0  0  0  0
 11 14  1  0  0  0  0
 14 15  1  0  0  0  0
 14 16  1  0  0  0  0
 14 17  1  0  0  0  0
 17 18  1  0  0  0  0
 17 19  1  0  0  0  0
 17 20  1  0  0  0  0
M  END
> <VConfSearch Rank>
550

> <Conf_Id>
64

> <Delta U+W>
0.707

> <U+W>
-11.070

> <U>
47.077

> <W>
-58.148

> <W(PB)>
-60.054

> <W(SA)>
1.906

> <Valence>
2.039

> <Coulomb>
44.655

> <VdW>
0.383

> <VdW6>
-4.912

> <VdW12>
5.295

> <Bond>
0.159

> <Angle>
0.856

> <Pdih>
1.024

> <Idih>
0.000

> <Tether>
0.000

$$$$
VeraChem MOL file


 20 19  0  0  0  0  0  0  0  0999 V2000     
   20.3860   21.7835   22.8127 N   0  3  0  0  0  0  0  0  0  0  0  0
   19.7363   22.1730   23.5030 H   0  0  0  0  0  0  0  0  0  0  0  0
   21.2969   21.6935   23.2736 H   0  0  0  0  0  0  0  0  0  0  0  0
   20.4939   22.4881   22.0756 H   0  0  0  0  0  0  0  0  0  0  0  0
   19.8977   20.4600   22.2594 C   0  0  0  0  0  0  0  0  0  0  0  0
   20.6201   20.1214   21.5121 H   0  0  0  0  0  0  0  0  0  0  0  0
   18.9414   20.6349   21.7591 H   0  0  0  0  0  0  0  0  0  0  0  0
   19.7253   19.3780   23.3422 C   0  0  0  0  0  0  0  0  0  0  0  0
   20.6826   19.2082   23.8513 H   0  0  0  0  0  0  0  0  0  0  0  0
   19.0301   19.7449   24.1088 H   0  0  0  0  0  0  0  0  0  0  0  0
   19.1830   18.0426   22.7742 C   0  0  0  0  0  0  0  0  0  0  0  0
   18.1703   18.2075   22.3809 H   0  0  0  0  0  0  0  0  0  0  0  0
   19.0736   17.3235   23.5978 H   0  0  0  0  0  0  0  0  0  0  0  0
   20.0537   17.4079   21.6596 C   0  0  0  0  0  0  0  0  0  0  0  0
   19.5681   16.4822   21.3204 H   0  0  0  0  0  0  0  0  0  0  0  0
   20.0881   18.0683   20.7825 H   0  0  0  0  0  0  0  0  0  0  0  0
   21.4923   17.0764   22.1174 C   0  0  0  0  0  0  0  0  0  0  0  0
   21.4853   16.4330   23.0068 H   0  0  0  0  0  0  0  0  0  0  0  0
   22.0356   16.5465   21.3244 H   0  0  0  0  0  0  0  0  0  0  0  0
   22.0591   17.9853   22.3545 H   0  0  0  0  0  0  0  0  0  0  0  0
  1  2  1  0  0  0  0
  1  3  1  0  0  0  0
  1  4  1  0  0  0  0
  1  5  1  0  0  0  0
  5  6  1  0  0  0  0
  5  7  1  0  0  0  0
  5  8  1  0  0  0  0
  8  9  1  0  0  0  0
  8 10  1  0  0  0  0
  8 11  1  0  0  0  0
 11 12  1  0  0  0  0
 11 13  1  0  0  0  0
 11 14  1  0  0  0  0
 14 15  1  0  0  0  0
 14 16  1  0  0  0  0
 14 17  1  0  0  0  0
 17 18  1  0  0  0  0
 17 19  1  0  0  0  0
 17 20  1  0  0  0  0
M  END
> <VConfSearch Rank>
551

> <Conf_Id>
22

> <Delta U+W>
0.731

> <U+W>
-11.047

> <U>
47.078

> <W>
-58.125

> <W(PB)>
-60.031

> <W(SA)>
1.906

> <Valence>
2.039

> <Coulomb>
44.655

> <VdW>
0.383

> <VdW6>
-4.913

> <VdW12>
5.296

> <Bond>
0.159

> <Angle>
0.856

> <Pdih>
1.024

> <Idih>
0.000

> <Tether>
0.000

$$$$
VeraChem MOL file


 20 19  0  0  0  0  0  0  0  0999 V2000     
   19.6864   16.5062   22.2937 N   0  3  0  0  0  0  0  0  0  0  0  0
   19.0174   16.4690   21.5182 H   0  0  0  0  0  0  0  0  0  0  0  0
   20.5124   15.9729   22.0047 H   0  0  0  0  0  0  0  0  0  0  0  0
   19.2629   15.9968   23.0765 H   0  0  0  0  0  0  0  0  0  0  0  0
   20.0362   17.9313   22.6721 C   0  0  0  0  0  0  0  0  0  0  0  0
   20.7279   17.8968   23.5182 H   0  0  0  0  0  0  0  0  0  0  0  0
   19.1162   18.4240   22.9950 H   0  0  0  0  0  0  0  0  0  0  0  0
   20.6694   18.7254   21.5158 C   0  0  0  0  0  0  0  0  0  0  0  0
   21.5233   18.1572   21.1234 H   0  0  0  0  0  0  0  0  0  0  0  0
   19.9482   18.8093   20.6920 H   0  0  0  0  0  0  0  0  0  0  0  0
   21.1640   20.1374   21.9200 C   0  0  0  0  0  0  0  0  0  0  0  0
   21.6744   20.5700   21.0483 H   0  0  0  0  0  0  0  0  0  0  0  0
   21.9299   20.0605   22.7041 H   0  0  0  0  0  0  0  0  0  0  0  0
   20.0470   21.1204   22.3573 C   0  0  0  0  0  0  0  0  0  0  0  0
   20.3790   22.1430   22.1293 H   0  0  0  0  0  0  0  0  0  0  0  0
   19.1399   20.9575   21.7586 H   0  0  0  0  0  0  0  0  0  0  0  0
   19.7122   21.0579   23.8663 C   0  0  0  0  0  0  0  0  0  0  0  0
   19.2860   20.0925   24.1581 H   0  0  0  0  0  0  0  0  0  0  0  0
   20.6082   21.2331   24.4759 H   0  0  0  0  0  0  0  0  0  0  0  0
   18.9780   21.8313   24.1264 H   0  0  0  0  0  0  0  0  0  0  0  0
  1  2  1  0  0  0  0
  1  3  1  0  0  0  0
  1  4  1  0  0  0  0
  1  5  1  0  0  0  0
  5  6  1  0  0  0  0
  5  7  1  0  0  0  0
  5  8  1  0  0  0  0
  8  9  1  0  0  0  0
  8 10  1  0  0  0  0
  8 11  1  0  0  0  0
 11 12  1  0  0  0  0
 11 13  1  0  0  0  0
 11 14  1  0  0  0  0
 14 15  1  0  0  0  0
 14 16  1  0  0  0  0
 14 17  1  0  0  0  0
 17 18  1  0  0  0  0
 17 19  1  0  0  0  0
 17 20  1  0  0  0  0
M  END
> <VConfSearch Rank>
552

> <Conf_Id>
61

> <Delta U+W>
2.669

> <U+W>
-9.108

> <U>
48.916

> <W>
-58.025

> <W(PB)>
-59.935

> <W(SA)>
1.911

> <Valence>
3.785

> <Coulomb>
44.716

> <VdW>
0.415

> <VdW6>
-4.836

> <VdW12>
5.251

> <Bond>
0.175

> <Angle>
1.195

> <Pdih>
2.415

> <Idih>
0.000

> <Tether>
0.000

$$$$
VeraChem MOL file


 20 19  0  0  0  0  0  0  0  0999 V2000     
   20.9659   17.1820   23.4719 N   0  3  0  0  0  0  0  0  0  0  0  0
   20.7189   16.3055   23.9435 H   0  0  0  0  0  0  0  0  0  0  0  0
   21.9810   17.2910   23.5614 H   0  0  0  0  0  0  0  0  0  0  0  0
   20.5325   17.9416   24.0031 H   0  0  0  0  0  0  0  0  0  0  0  0
   20.5259   17.1820   22.0203 C   0  0  0  0  0  0  0  0  0  0  0  0
   19.4477   17.0050   21.9827 H   0  0  0  0  0  0  0  0  0  0  0  0
   21.0239   16.3370   21.5371 H   0  0  0  0  0  0  0  0  0  0  0  0
   20.8720   18.4740   21.2505 C   0  0  0  0  0  0  0  0  0  0  0  0
   21.8880   18.8035   21.5055 H   0  0  0  0  0  0  0  0  0  0  0  0
   20.8953   18.2285   20.1804 H   0  0  0  0  0  0  0  0  0  0  0  0
   19.8619   19.6332   21.4495 C   0  0  0  0  0  0  0  0  0  0  0  0
   18.8615   19.3051   21.1349 H   0  0  0  0  0  0  0  0  0  0  0  0
   20.1423   20.4508   20.7709 H   0  0  0  0  0  0  0  0  0  0  0  0
   19.7937   20.1839   22.8932 C   0  0  0  0  0  0  0  0  0  0  0  0
   19.3713   19.4264   23.5651 H   0  0  0  0  0  0  0  0  0  0  0  0
   20.8062   20.4139   23.2538 H   0  0  0  0  0  0  0  0  0  0  0  0
   18.9219   21.4552   22.9760 C   0  0  0  0  0  0  0  0  0  0  0  0
   18.8759   21.8274   24.0077 H   0  0  0  0  0  0  0  0  0  0  0  0
   19.3308   22.2571   22.3476 H   0  0  0  0  0  0  0  0  0  0  0  0
   17.8949   21.2519   22.6454 H   0  0  0  0  0  0  0  0  0  0  0  0
  1  2  1  0  0  0  0
  1  3  1  0  0  0  0
  1  4  1  0  0  0  0
  1  5  1  0  0  0  0
  5  6  1  0  0  0  0
  5  7  1  0  0  0  0
  5  8  1  0  0  0  0
  8  9  1  0  0  0  0
  8 10  1  0  0  0  0
  8 11  1  0  0  0  0
 11 12  1  0  0  0  0
 11 13  1  0  0  0  0
 11 14  1  0  0  0  0
 14 15  1  0  0  0  0
 14 16  1  0  0  0  0
 14 17  1  0  0  0  0
 17 18  1  0  0  0  0
 17 19  1  0  0  0  0
 17 20  1  0  0  0  0
M  END
> <VConfSearch Rank>
553

> <Conf_Id>
69

> <Delta U+W>
2.811

> <U+W>
-8.967

> <U>
49.216

> <W>
-58.183

> <W(PB)>
-60.064

> <W(SA)>
1.881

> <Valence>
2.929

> <Coulomb>
46.006

> <VdW>
0.281

> <VdW6>
-4.909

> <VdW12>
5.190

> <Bond>
0.156

> <Angle>
0.974

> <Pdih>
1.799

> <Idih>
0.000

> <Tether>
0.000

$$$$
VeraChem MOL file


 20 19  0  0  0  0  0  0  0  0999 V2000     
   19.7560   17.5134   23.9818 N   0  3  0  0  0  0  0  0  0  0  0  0
   20.4280   17.4014   23.2183 H   0  0  0  0  0  0  0  0  0  0  0  0
   20.2903   17.7562   24.8220 H   0  0  0  0  0  0  0  0  0  0  0  0
   19.3375   16.5928   24.1522 H   0  0  0  0  0  0  0  0  0  0  0  0
   18.7038   18.5582   23.6627 C   0  0  0  0  0  0  0  0  0  0  0  0
   18.0277   18.6010   24.5209 H   0  0  0  0  0  0  0  0  0  0  0  0
   18.1287   18.2208   22.7962 H   0  0  0  0  0  0  0  0  0  0  0  0
   19.2684   19.9701   23.3993 C   0  0  0  0  0  0  0  0  0  0  0  0
   18.4621   20.6919   23.5857 H   0  0  0  0  0  0  0  0  0  0  0  0
   20.0551   20.2032   24.1290 H   0  0  0  0  0  0  0  0  0  0  0  0
   19.7853   20.1988   21.9556 C   0  0  0  0  0  0  0  0  0  0  0  0
   20.0516   21.2598   21.8521 H   0  0  0  0  0  0  0  0  0  0  0  0
   18.9697   20.0178   21.2417 H   0  0  0  0  0  0  0  0  0  0  0  0
   21.0099   19.3368   21.5687 C   0  0  0  0  0  0  0  0  0  0  0  0
   21.7904   19.4301   22.3368 H   0  0  0  0  0  0  0  0  0  0  0  0
   20.7244   18.2786   21.5190 H   0  0  0  0  0  0  0  0  0  0  0  0
   21.5891   19.7542   20.2000 C   0  0  0  0  0  0  0  0  0  0  0  0
   21.9260   20.7989   20.2147 H   0  0  0  0  0  0  0  0  0  0  0  0
   22.4507   19.1272   19.9359 H   0  0  0  0  0  0  0  0  0  0  0  0
   20.8393   19.6481   19.4051 H   0  0  0  0  0  0  0  0  0  0  0  0
  1  2  1  0  0  0  0
  1  3  1  0  0  0  0
  1  4  1  0  0  0  0
  1  5  1  0  0  0  0
  5  6  1  0  0  0  0
  5  7  1  0  0  0  0
  5  8  1  0  0  0  0
  8  9  1  0  0  0  0
  8 10  1  0  0  0  0
  8 11  1  0  0  0  0
 11 12  1  0  0  0  0
 11 13  1  0  0  0  0
 11 14  1  0  0  0  0
 14 15  1  0  0  0  0
 14 16  1  0  0  0  0
 14 17  1  0  0  0  0
 17 18  1  0  0  0  0
 17 19  1  0  0  0  0
 17 20  1  0  0  0  0
M  END
> <VConfSearch Rank>
554

> <Conf_Id>
26

> <Delta U+W>
2.809

> <U+W>
-8.969

> <U>
49.216

> <W>
-58.185

> <W(PB)>
-60.088

> <W(SA)>
1.903

> <Valence>
2.929

> <Coulomb>
46.006

> <VdW>
0.281

> <VdW6>
-4.909

> <VdW12>
5.190

> <Bond>
0.156

> <Angle>
0.974

> <Pdih>
1.799

> <Idih>
0.000

> <Tether>
0.000

$$$$
VeraChem MOL file


 20 19  0  0  0  0  0  0  0  0999 V2000     
   18.8417   17.7447   23.9308 N   0  3  0  0  0  0  0  0  0  0  0  0
   19.3455   17.1336   23.2815 H   0  0  0  0  0  0  0  0  0  0  0  0
   19.2210   17.5705   24.8666 H   0  0  0  0  0  0  0  0  0  0  0  0
   17.8652   17.4322   23.9416 H   0  0  0  0  0  0  0  0  0  0  0  0
   18.9624   19.2037   23.5362 C   0  0  0  0  0  0  0  0  0  0  0  0
   18.3787   19.7912   24.2501 H   0  0  0  0  0  0  0  0  0  0  0  0
   18.5122   19.3269   22.5477 H   0  0  0  0  0  0  0  0  0  0  0  0
   20.4149   19.7215   23.5139 C   0  0  0  0  0  0  0  0  0  0  0  0
   20.4038   20.7970   23.2955 H   0  0  0  0  0  0  0  0  0  0  0  0
   20.8462   19.6246   24.5190 H   0  0  0  0  0  0  0  0  0  0  0  0
   21.3287   18.9924   22.4939 C   0  0  0  0  0  0  0  0  0  0  0  0
   21.4679   17.9501   22.8109 H   0  0  0  0  0  0  0  0  0  0  0  0
   22.3279   19.4481   22.5257 H   0  0  0  0  0  0  0  0  0  0  0  0
   20.8133   19.0080   21.0320 C   0  0  0  0  0  0  0  0  0  0  0  0
   21.5214   18.4487   20.4046 H   0  0  0  0  0  0  0  0  0  0  0  0
   19.8577   18.4713   20.9598 H   0  0  0  0  0  0  0  0  0  0  0  0
   20.6536   20.4323   20.4535 C   0  0  0  0  0  0  0  0  0  0  0  0
   21.5921   20.9966   20.5290 H   0  0  0  0  0  0  0  0  0  0  0  0
   20.3735   20.3875   19.3931 H   0  0  0  0  0  0  0  0  0  0  0  0
   19.8710   20.9946   20.9779 H   0  0  0  0  0  0  0  0  0  0  0  0
  1  2  1  0  0  0  0
  1  3  1  0  0  0  0
  1  4  1  0  0  0  0
  1  5  1  0  0  0  0
  5  6  1  0  0  0  0
  5  7  1  0  0  0  0
  5  8  1  0  0  0  0
  8  9  1  0  0  0  0
  8 10  1  0  0  0  0
  8 11  1  0  0  0  0
 11 12  1  0  0  0  0
 11 13  1  0  0  0  0
 11 14  1  0  0  0  0
 14 15  1  0  0  0  0
 14 16  1  0  0  0  0
 14 17  1  0  0  0  0
 17 18  1  0  0  0  0
 17 19  1  0  0  0  0
 17 20  1  0  0  0  0
M  END
> <VConfSearch Rank>
555

> <Conf_Id>
2

> <Delta U+W>
0.994

> <U+W>
-10.784

> <U>
47.562

> <W>
-58.346

> <W(PB)>
-60.221

> <W(SA)>
1.875

> <Valence>
2.149

> <Coulomb>
45.034

> <VdW>
0.378

> <VdW6>
-5.599

> <VdW12>
5.977

> <Bond>
0.185

> <Angle>
0.935

> <Pdih>
1.028

> <Idih>
0.000

> <Tether>
0.000

$$$$
VeraChem MOL file


 20 19  0  0  0  0  0  0  0  0999 V2000     
   20.7309   21.1835   21.4009 N   0  3  0  0  0  0  0  0  0  0  0  0
   21.5613   21.1989   20.8007 H   0  0  0  0  0  0  0  0  0  0  0  0
   19.9719   20.7632   20.8566 H   0  0  0  0  0  0  0  0  0  0  0  0
   20.4707   22.1597   21.5756 H   0  0  0  0  0  0  0  0  0  0  0  0
   20.9816   20.4272   22.6909 C   0  0  0  0  0  0  0  0  0  0  0  0
   20.0727   20.4766   23.2961 H   0  0  0  0  0  0  0  0  0  0  0  0
   21.7777   20.9461   23.2318 H   0  0  0  0  0  0  0  0  0  0  0  0
   21.3843   18.9539   22.4772 C   0  0  0  0  0  0  0  0  0  0  0  0
   22.3162   18.9166   21.8976 H   0  0  0  0  0  0  0  0  0  0  0  0
   21.6198   18.5067   23.4514 H   0  0  0  0  0  0  0  0  0  0  0  0
   20.3033   18.1023   21.7609 C   0  0  0  0  0  0  0  0  0  0  0  0
   20.6629   17.0670   21.6836 H   0  0  0  0  0  0  0  0  0  0  0  0
   20.1891   18.4546   20.7270 H   0  0  0  0  0  0  0  0  0  0  0  0
   18.9137   18.1036   22.4481 C   0  0  0  0  0  0  0  0  0  0  0  0
   18.4912   19.1175   22.4499 H   0  0  0  0  0  0  0  0  0  0  0  0
   18.2255   17.4913   21.8487 H   0  0  0  0  0  0  0  0  0  0  0  0
   18.9429   17.5511   23.8912 C   0  0  0  0  0  0  0  0  0  0  0  0
   19.5283   18.1965   24.5578 H   0  0  0  0  0  0  0  0  0  0  0  0
   17.9261   17.4899   24.3002 H   0  0  0  0  0  0  0  0  0  0  0  0
   19.3770   16.5432   23.9194 H   0  0  0  0  0  0  0  0  0  0  0  0
  1  2  1  0  0  0  0
  1  3  1  0  0  0  0
  1  4  1  0  0  0  0
  1  5  1  0  0  0  0
  5  6  1  0  0  0  0
  5  7  1  0  0  0  0
  5  8  1  0  0  0  0
  8  9  1  0  0  0  0
  8 10  1  0  0  0  0
  8 11  1  0  0  0  0
 11 12  1  0  0  0  0
 11 13  1  0  0  0  0
 11 14  1  0  0  0  0
 14 15  1  0  0  0  0
 14 16  1  0  0  0  0
 14 17  1  0  0  0  0
 17 18  1  0  0  0  0
 17 19  1  0  0  0  0
 17 20  1  0  0  0  0
M  END
> <VConfSearch Rank>
556

> <Conf_Id>
1

> <Delta U+W>
1.032

> <U+W>
-10.746

> <U>
47.562

> <W>
-58.308

> <W(PB)>
-60.184

> <W(SA)>
1.877

> <Valence>
2.149

> <Coulomb>
45.035

> <VdW>
0.378

> <VdW6>
-5.599

> <VdW12>
5.978

> <Bond>
0.185

> <Angle>
0.935

> <Pdih>
1.028

> <Idih>
0.000

> <Tether>
0.000

$$$$
VeraChem MOL file


 20 19  0  0  0  0  0  0  0  0999 V2000     
   21.7102   17.3279   22.7679 N   0  3  0  0  0  0  0  0  0  0  0  0
   21.6783   16.7951   23.6426 H   0  0  0  0  0  0  0  0  0  0  0  0
   20.9279   17.0081   22.1897 H   0  0  0  0  0  0  0  0  0  0  0  0
   22.5717   17.0545   22.2837 H   0  0  0  0  0  0  0  0  0  0  0  0
   21.6537   18.8230   23.0154 C   0  0  0  0  0  0  0  0  0  0  0  0
   21.7229   19.3265   22.0499 H   0  0  0  0  0  0  0  0  0  0  0  0
   22.5380   19.0928   23.5992 H   0  0  0  0  0  0  0  0  0  0  0  0
   20.3890   19.2826   23.7717 C   0  0  0  0  0  0  0  0  0  0  0  0
   20.3519   18.7472   24.7297 H   0  0  0  0  0  0  0  0  0  0  0  0
   20.4837   20.3465   24.0258 H   0  0  0  0  0  0  0  0  0  0  0  0
   19.0558   19.0455   23.0123 C   0  0  0  0  0  0  0  0  0  0  0  0
   18.2481   19.0025   23.7560 H   0  0  0  0  0  0  0  0  0  0  0  0
   19.0569   18.0618   22.5254 H   0  0  0  0  0  0  0  0  0  0  0  0
   18.6809   20.1445   21.9849 C   0  0  0  0  0  0  0  0  0  0  0  0
   17.6832   19.9157   21.5846 H   0  0  0  0  0  0  0  0  0  0  0  0
   18.5869   21.1130   22.4957 H   0  0  0  0  0  0  0  0  0  0  0  0
   19.6642   20.2813   20.8015 C   0  0  0  0  0  0  0  0  0  0  0  0
   19.8696   19.3075   20.3387 H   0  0  0  0  0  0  0  0  0  0  0  0
   19.2428   20.9373   20.0288 H   0  0  0  0  0  0  0  0  0  0  0  0
   20.6136   20.7275   21.1205 H   0  0  0  0  0  0  0  0  0  0  0  0
  1  2  1  0  0  0  0
  1  3  1  0  0  0  0
  1  4  1  0  0  0  0
  1  5  1  0  0  0  0
  5  6  1  0  0  0  0
  5  7  1  0  0  0  0
  5  8  1  0  0  0  0
  8  9  1  0  0  0  0
  8 10  1  0  0  0  0
  8 11  1  0  0  0  0
 11 12  1  0  0  0  0
 11 13  1  0  0  0  0
 11 14  1  0  0  0  0
 14 15  1  0  0  0  0
 14 16  1  0  0  0  0
 14 17  1  0  0  0  0
 17 18  1  0  0  0  0
 17 19  1  0  0  0  0
 17 20  1  0  0  0  0
M  END
> <VConfSearch Rank>
557

> <Conf_Id>
80

> <Delta U+W>
2.920

> <U+W>
-8.857

> <U>
49.434

> <W>
-58.292

> <W(PB)>
-60.170

> <W(SA)>
1.879

> <Valence>
3.798

> <Coulomb>
45.253

> <VdW>
0.384

> <VdW6>
-5.595

> <VdW12>
5.979

> <Bond>
0.198

> <Angle>
1.368

> <Pdih>
2.231

> <Idih>
0.000

> <Tether>
0.000

$$$$
VeraChem MOL file


 20 19  0  0  0  0  0  0  0  0999 V2000     
   20.9551   19.5092   24.6730 N   0  3  0  0  0  0  0  0  0  0  0  0
   20.4682   19.0293   25.4363 H   0  0  0  0  0  0  0  0  0  0  0  0
   21.8339   19.8691   25.0596 H   0  0  0  0  0  0  0  0  0  0  0  0
   20.3872   20.3213   24.4149 H   0  0  0  0  0  0  0  0  0  0  0  0
   21.1948   18.5904   23.4905 C   0  0  0  0  0  0  0  0  0  0  0  0
   21.8390   17.7760   23.8329 H   0  0  0  0  0  0  0  0  0  0  0  0
   21.7409   19.1538   22.7323 H   0  0  0  0  0  0  0  0  0  0  0  0
   19.9027   17.9954   22.8912 C   0  0  0  0  0  0  0  0  0  0  0  0
   20.1653   17.2467   22.1321 H   0  0  0  0  0  0  0  0  0  0  0  0
   19.3801   17.4467   23.6859 H   0  0  0  0  0  0  0  0  0  0  0  0
   18.9301   19.0389   22.2784 C   0  0  0  0  0  0  0  0  0  0  0  0
   18.8593   19.9262   22.9205 H   0  0  0  0  0  0  0  0  0  0  0  0
   17.9231   18.5991   22.2757 H   0  0  0  0  0  0  0  0  0  0  0  0
   19.2539   19.4630   20.8227 C   0  0  0  0  0  0  0  0  0  0  0  0
   19.2290   18.5823   20.1657 H   0  0  0  0  0  0  0  0  0  0  0  0
   18.4510   20.1257   20.4704 H   0  0  0  0  0  0  0  0  0  0  0  0
   20.6037   20.1940   20.6507 C   0  0  0  0  0  0  0  0  0  0  0  0
   21.4489   19.5059   20.7709 H   0  0  0  0  0  0  0  0  0  0  0  0
   20.6790   20.6249   19.6439 H   0  0  0  0  0  0  0  0  0  0  0  0
   20.7093   21.0126   21.3742 H   0  0  0  0  0  0  0  0  0  0  0  0
  1  2  1  0  0  0  0
  1  3  1  0  0  0  0
  1  4  1  0  0  0  0
  1  5  1  0  0  0  0
  5  6  1  0  0  0  0
  5  7  1  0  0  0  0
  5  8  1  0  0  0  0
  8  9  1  0  0  0  0
  8 10  1  0  0  0  0
  8 11  1  0  0  0  0
 11 12  1  0  0  0  0
 11 13  1  0  0  0  0
 11 14  1  0  0  0  0
 14 15  1  0  0  0  0
 14 16  1  0  0  0  0
 14 17  1  0  0  0  0
 17 18  1  0  0  0  0
 17 19  1  0  0  0  0
 17 20  1  0  0  0  0
M  END
> <VConfSearch Rank>
558

> <Conf_Id>
65

> <Delta U+W>
2.949

> <U+W>
-8.829

> <U>
49.435

> <W>
-58.263

> <W(PB)>
-60.125

> <W(SA)>
1.862

> <Valence>
3.797

> <Coulomb>
45.253

> <VdW>
0.384

> <VdW6>
-5.596

> <VdW12>
5.980

> <Bond>
0.198

> <Angle>
1.369

> <Pdih>
2.230

> <Idih>
0.000

> <Tether>
0.000

$$$$
VeraChem MOL file


 20 19  0  0  0  0  0  0  0  0999 V2000     
   20.4435   19.7194   24.3378 N   0  3  0  0  0  0  0  0  0  0  0  0
   21.2423   19.9787   24.9263 H   0  0  0  0  0  0  0  0  0  0  0  0
   20.3651   20.4258   23.5999 H   0  0  0  0  0  0  0  0  0  0  0  0
   19.6054   19.7950   24.9228 H   0  0  0  0  0  0  0  0  0  0  0  0
   20.6000   18.3275   23.7565 C   0  0  0  0  0  0  0  0  0  0  0  0
   20.6745   17.6357   24.5999 H   0  0  0  0  0  0  0  0  0  0  0  0
   21.5390   18.2841   23.1983 H   0  0  0  0  0  0  0  0  0  0  0  0
   19.4308   17.8920   22.8500 C   0  0  0  0  0  0  0  0  0  0  0  0
   19.4168   16.7942   22.8281 H   0  0  0  0  0  0  0  0  0  0  0  0
   18.4770   18.1934   23.3028 H   0  0  0  0  0  0  0  0  0  0  0  0
   19.5092   18.3935   21.3829 C   0  0  0  0  0  0  0  0  0  0  0  0
   18.6516   17.9672   20.8441 H   0  0  0  0  0  0  0  0  0  0  0  0
   20.3999   17.9775   20.8920 H   0  0  0  0  0  0  0  0  0  0  0  0
   19.4722   19.9325   21.2020 C   0  0  0  0  0  0  0  0  0  0  0  0
   18.9142   20.1635   20.2835 H   0  0  0  0  0  0  0  0  0  0  0  0
   18.9054   20.4019   22.0173 H   0  0  0  0  0  0  0  0  0  0  0  0
   20.8791   20.5630   21.0712 C   0  0  0  0  0  0  0  0  0  0  0  0
   21.5284   20.3194   21.9190 H   0  0  0  0  0  0  0  0  0  0  0  0
   21.3789   20.2058   20.1614 H   0  0  0  0  0  0  0  0  0  0  0  0
   20.8081   21.6562   21.0012 H   0  0  0  0  0  0  0  0  0  0  0  0
  1  2  1  0  0  0  0
  1  3  1  0  0  0  0
  1  4  1  0  0  0  0
  1  5  1  0  0  0  0
  5  6  1  0  0  0  0
  5  7  1  0  0  0  0
  5  8  1  0  0  0  0
  8  9  1  0  0  0  0
  8 10  1  0  0  0  0
  8 11  1  0  0  0  0
 11 12  1  0  0  0  0
 11 13  1  0  0  0  0
 11 14  1  0  0  0  0
 14 15  1  0  0  0  0
 14 16  1  0  0  0  0
 14 17  1  0  0  0  0
 17 18  1  0  0  0  0
 17 19  1  0  0  0  0
 17 20  1  0  0  0  0
M  END
> <VConfSearch Rank>
559

> <Conf_Id>
77

> <Delta U+W>
5.366

> <U+W>
-6.412

> <U>
51.542

> <W>
-57.954

> <W(PB)>
-59.811

> <W(SA)>
1.857

> <Valence>
5.347

> <Coulomb>
45.870

> <VdW>
0.325

> <VdW6>
-6.161

> <VdW12>
6.486

> <Bond>
0.201

> <Angle>
1.484

> <Pdih>
3.662

> <Idih>
0.000

> <Tether>
0.000

$$$$
VeraChem MOL file


 20 19  0  0  0  0  0  0  0  0999 V2000     
   21.5175   18.6679   21.0275 N   0  3  0  0  0  0  0  0  0  0  0  0
   21.1338   18.2328   20.1826 H   0  0  0  0  0  0  0  0  0  0  0  0
   21.0676   19.5826   21.1306 H   0  0  0  0  0  0  0  0  0  0  0  0
   22.5137   18.8349   20.8507 H   0  0  0  0  0  0  0  0  0  0  0  0
   21.2999   17.8031   22.2540 C   0  0  0  0  0  0  0  0  0  0  0  0
   21.7836   18.2807   23.1103 H   0  0  0  0  0  0  0  0  0  0  0  0
   21.8042   16.8511   22.0672 H   0  0  0  0  0  0  0  0  0  0  0  0
   19.8159   17.5322   22.5745 C   0  0  0  0  0  0  0  0  0  0  0  0
   19.2686   17.3169   21.6472 H   0  0  0  0  0  0  0  0  0  0  0  0
   19.7661   16.6115   23.1708 H   0  0  0  0  0  0  0  0  0  0  0  0
   19.0965   18.6525   23.3729 C   0  0  0  0  0  0  0  0  0  0  0  0
   19.5673   18.7712   24.3586 H   0  0  0  0  0  0  0  0  0  0  0  0
   18.0740   18.3055   23.5764 H   0  0  0  0  0  0  0  0  0  0  0  0
   19.0039   20.0252   22.6590 C   0  0  0  0  0  0  0  0  0  0  0  0
   18.9823   19.8910   21.5691 H   0  0  0  0  0  0  0  0  0  0  0  0
   18.0422   20.4901   22.9181 H   0  0  0  0  0  0  0  0  0  0  0  0
   20.1285   21.0032   23.0742 C   0  0  0  0  0  0  0  0  0  0  0  0
   20.0570   21.9392   22.5051 H   0  0  0  0  0  0  0  0  0  0  0  0
   20.0453   21.2573   24.1390 H   0  0  0  0  0  0  0  0  0  0  0  0
   21.1282   20.5853   22.9142 H   0  0  0  0  0  0  0  0  0  0  0  0
  1  2  1  0  0  0  0
  1  3  1  0  0  0  0
  1  4  1  0  0  0  0
  1  5  1  0  0  0  0
  5  6  1  0  0  0  0
  5  7  1  0  0  0  0
  5  8  1  0  0  0  0
  8  9  1  0  0  0  0
  8 10  1  0  0  0  0
  8 11  1  0  0  0  0
 11 12  1  0  0  0  0
 11 13  1  0  0  0  0
 11 14  1  0  0  0  0
 14 15  1  0  0  0  0
 14 16  1  0  0  0  0
 14 17  1  0  0  0  0
 17 18  1  0  0  0  0
 17 19  1  0  0  0  0
 17 20  1  0  0  0  0
M  END
> <VConfSearch Rank>
560

> <Conf_Id>
67

> <Delta U+W>
5.353

> <U+W>
-6.425

> <U>
51.541

> <W>
-57.966

> <W(PB)>
-59.821

> <W(SA)>
1.855

> <Valence>
5.347

> <Coulomb>
45.870

> <VdW>
0.325

> <VdW6>
-6.161

> <VdW12>
6.486

> <Bond>
0.201

> <Angle>
1.485

> <Pdih>
3.662

> <Idih>
0.000

> <Tether>
0.000

$$$$
VeraChem MOL file


 20 19  0  0  0  0  0  0  0  0999 V2000     
   19.2113   22.1213   23.1689 N   0  3  0  0  0  0  0  0  0  0  0  0
   18.5048   22.2255   22.4337 H   0  0  0  0  0  0  0  0  0  0  0  0
   18.8632   22.6283   23.9895 H   0  0  0  0  0  0  0  0  0  0  0  0
   20.0521   22.6132   22.8505 H   0  0  0  0  0  0  0  0  0  0  0  0
   19.4913   20.6656   23.4834 C   0  0  0  0  0  0  0  0  0  0  0  0
   18.5633   20.2136   23.8439 H   0  0  0  0  0  0  0  0  0  0  0  0
   20.2268   20.6304   24.2918 H   0  0  0  0  0  0  0  0  0  0  0  0
   20.0157   19.8749   22.2714 C   0  0  0  0  0  0  0  0  0  0  0  0
   19.2812   19.9263   21.4566 H   0  0  0  0  0  0  0  0  0  0  0  0
   20.9390   20.3416   21.9029 H   0  0  0  0  0  0  0  0  0  0  0  0
   20.2881   18.3980   22.6340 C   0  0  0  0  0  0  0  0  0  0  0  0
   19.3636   17.9356   23.0072 H   0  0  0  0  0  0  0  0  0  0  0  0
   21.0195   18.3505   23.4529 H   0  0  0  0  0  0  0  0  0  0  0  0
   20.8151   17.5941   21.4243 C   0  0  0  0  0  0  0  0  0  0  0  0
   20.0855   17.6373   20.6034 H   0  0  0  0  0  0  0  0  0  0  0  0
   21.7412   18.0520   21.0491 H   0  0  0  0  0  0  0  0  0  0  0  0
   21.0857   16.1192   21.7912 C   0  0  0  0  0  0  0  0  0  0  0  0
   20.1694   15.6238   22.1378 H   0  0  0  0  0  0  0  0  0  0  0  0
   21.4589   15.5652   20.9201 H   0  0  0  0  0  0  0  0  0  0  0  0
   21.8381   16.0418   22.5869 H   0  0  0  0  0  0  0  0  0  0  0  0
  1  2  1  0  0  0  0
  1  3  1  0  0  0  0
  1  4  1  0  0  0  0
  1  5  1  0  0  0  0
  5  6  1  0  0  0  0
  5  7  1  0  0  0  0
  5  8  1  0  0  0  0
  8  9  1  0  0  0  0
  8 10  1  0  0  0  0
  8 11  1  0  0  0  0
 11 12  1  0  0  0  0
 11 13  1  0  0  0  0
 11 14  1  0  0  0  0
 14 15  1  0  0  0  0
 14 16  1  0  0  0  0
 14 17  1  0  0  0  0
 17 18  1  0  0  0  0
 17 19  1  0  0  0  0
 17 20  1  0  0  0  0
M  END
> <VConfSearch Rank>
561

> <Conf_Id>
72

> <Delta U+W>
0.000

> <U+W>
-11.778

> <U>
45.772

> <W>
-57.550

> <W(PB)>
-59.511

> <W(SA)>
1.961

> <Valence>
1.299

> <Coulomb>
44.177

> <VdW>
0.297

> <VdW6>
-3.490

> <VdW12>
3.786

> <Bond>
0.096

> <Angle>
0.381

> <Pdih>
0.822

> <Idih>
0.000

> <Tether>
0.000

$$$$
VeraChem MOL file


 20 19  0  0  0  0  0  0  0  0999 V2000     
   20.4137   19.6422   19.5303 N   0  3  0  0  0  0  0  0  0  0  0  0
   19.8606   18.8064   19.3161 H   0  0  0  0  0  0  0  0  0  0  0  0
   19.7850   20.4478   19.4518 H   0  0  0  0  0  0  0  0  0  0  0  0
   21.1114   19.7360   18.7846 H   0  0  0  0  0  0  0  0  0  0  0  0
   21.0598   19.5589   20.8986 C   0  0  0  0  0  0  0  0  0  0  0  0
   21.6550   20.4642   21.0462 H   0  0  0  0  0  0  0  0  0  0  0  0
   21.7358   18.6996   20.9010 H   0  0  0  0  0  0  0  0  0  0  0  0
   20.0393   19.4180   22.0422 C   0  0  0  0  0  0  0  0  0  0  0  0
   19.3527   20.2748   22.0262 H   0  0  0  0  0  0  0  0  0  0  0  0
   19.4362   18.5167   21.8744 H   0  0  0  0  0  0  0  0  0  0  0  0
   20.7417   19.3391   23.4183 C   0  0  0  0  0  0  0  0  0  0  0  0
   21.3992   20.2119   23.5348 H   0  0  0  0  0  0  0  0  0  0  0  0
   21.3939   18.4552   23.4508 H   0  0  0  0  0  0  0  0  0  0  0  0
   19.7579   19.3007   24.6130 C   0  0  0  0  0  0  0  0  0  0  0  0
   20.3351   19.3515   25.5469 H   0  0  0  0  0  0  0  0  0  0  0  0
   19.1195   20.1951   24.5979 H   0  0  0  0  0  0  0  0  0  0  0  0
   18.8748   18.0322   24.6418 C   0  0  0  0  0  0  0  0  0  0  0  0
   19.4892   17.1226   24.6288 H   0  0  0  0  0  0  0  0  0  0  0  0
   18.2633   18.0106   25.5531 H   0  0  0  0  0  0  0  0  0  0  0  0
   18.1902   17.9974   23.7853 H   0  0  0  0  0  0  0  0  0  0  0  0
  1  2  1  0  0  0  0
  1  3  1  0  0  0  0
  1  4  1  0  0  0  0
  1  5  1  0  0  0  0
  5  6  1  0  0  0  0
  5  7  1  0  0  0  0
  5  8  1  0  0  0  0
  8  9  1  0  0  0  0
  8 10  1  0  0  0  0
  8 11  1  0  0  0  0
 11 12  1  0  0  0  0
 11 13  1  0  0  0  0
 11 14  1  0  0  0  0
 14 15  1  0  0  0  0
 14 16  1  0  0  0  0
 14 17  1  0  0  0  0
 17 18  1  0  0  0  0
 17 19  1  0  0  0  0
 17 20  1  0  0  0  0
M  END
> <VConfSearch Rank>
562

> <Conf_Id>
42

> <Delta U+W>
0.508

> <U+W>
-11.270

> <U>
46.486

> <W>
-57.756

> <W(PB)>
-59.705

> <W(SA)>
1.949

> <Valence>
1.806

> <Coulomb>
44.248

> <VdW>
0.433

> <VdW6>
-4.089

> <VdW12>
4.522

> <Bond>
0.131

> <Angle>
0.628

> <Pdih>
1.047

> <Idih>
0.000

> <Tether>
0.000

$$$$
VeraChem MOL file


 20 19  0  0  0  0  0  0  0  0999 V2000     
   17.2143   19.5996   22.2203 N   0  3  0  0  0  0  0  0  0  0  0  0
   17.2175   20.5517   22.5994 H   0  0  0  0  0  0  0  0  0  0  0  0
   17.2954   19.6805   21.2019 H   0  0  0  0  0  0  0  0  0  0  0  0
   16.2876   19.2056   22.4143 H   0  0  0  0  0  0  0  0  0  0  0  0
   18.3218   18.7507   22.8114 C   0  0  0  0  0  0  0  0  0  0  0  0
   18.2401   17.7462   22.3875 H   0  0  0  0  0  0  0  0  0  0  0  0
   18.1556   18.6826   23.8900 H   0  0  0  0  0  0  0  0  0  0  0  0
   19.7278   19.3148   22.5388 C   0  0  0  0  0  0  0  0  0  0  0  0
   19.8768   19.3954   21.4547 H   0  0  0  0  0  0  0  0  0  0  0  0
   19.8003   20.3295   22.9522 H   0  0  0  0  0  0  0  0  0  0  0  0
   20.8251   18.4193   23.1611 C   0  0  0  0  0  0  0  0  0  0  0  0
   20.7823   17.4165   22.7137 H   0  0  0  0  0  0  0  0  0  0  0  0
   20.6154   18.2885   24.2319 H   0  0  0  0  0  0  0  0  0  0  0  0
   22.2539   18.9947   23.0059 C   0  0  0  0  0  0  0  0  0  0  0  0
   22.3076   19.9880   23.4732 H   0  0  0  0  0  0  0  0  0  0  0  0
   22.9538   18.3557   23.5624 H   0  0  0  0  0  0  0  0  0  0  0  0
   22.7238   19.0857   21.5361 C   0  0  0  0  0  0  0  0  0  0  0  0
   22.1271   19.8081   20.9655 H   0  0  0  0  0  0  0  0  0  0  0  0
   23.7708   19.4119   21.4871 H   0  0  0  0  0  0  0  0  0  0  0  0
   22.6531   18.1103   21.0374 H   0  0  0  0  0  0  0  0  0  0  0  0
  1  2  1  0  0  0  0
  1  3  1  0  0  0  0
  1  4  1  0  0  0  0
  1  5  1  0  0  0  0
  5  6  1  0  0  0  0
  5  7  1  0  0  0  0
  5  8  1  0  0  0  0
  8  9  1  0  0  0  0
  8 10  1  0  0  0  0
  8 11  1  0  0  0  0
 11 12  1  0  0  0  0
 11 13  1  0  0  0  0
 11 14  1  0  0  0  0
 14 15  1  0  0  0  0
 14 16  1  0  0  0  0
 14 17  1  0  0  0  0
 17 18  1  0  0  0  0
 17 19  1  0  0  0  0
 17 20  1  0  0  0  0
M  END
> <VConfSearch Rank>
563

> <Conf_Id>
41

> <Delta U+W>
0.515

> <U+W>
-11.263

> <U>
46.486

> <W>
-57.749

> <W(PB)>
-59.685

> <W(SA)>
1.936

> <Valence>
1.806

> <Coulomb>
44.248

> <VdW>
0.433

> <VdW6>
-4.089

> <VdW12>
4.522

> <Bond>
0.131

> <Angle>
0.628

> <Pdih>
1.047

> <Idih>
0.000

> <Tether>
0.000

$$$$
VeraChem MOL file


 20 19  0  0  0  0  0  0  0  0999 V2000     
   19.3958   16.4662   22.5479 N   0  3  0  0  0  0  0  0  0  0  0  0
   19.1074   15.6258   23.0598 H   0  0  0  0  0  0  0  0  0  0  0  0
   18.5398   16.9297   22.2296 H   0  0  0  0  0  0  0  0  0  0  0  0
   19.8969   16.1485   21.7123 H   0  0  0  0  0  0  0  0  0  0  0  0
   20.2493   17.3815   23.4046 C   0  0  0  0  0  0  0  0  0  0  0  0
   21.1164   16.8062   23.7403 H   0  0  0  0  0  0  0  0  0  0  0  0
   19.6668   17.6634   24.2858 H   0  0  0  0  0  0  0  0  0  0  0  0
   20.7318   18.6503   22.6743 C   0  0  0  0  0  0  0  0  0  0  0  0
   21.4302   19.1769   23.3365 H   0  0  0  0  0  0  0  0  0  0  0  0
   21.3016   18.3642   21.7803 H   0  0  0  0  0  0  0  0  0  0  0  0
   19.5676   19.5951   22.2831 C   0  0  0  0  0  0  0  0  0  0  0  0
   19.0161   19.8952   23.1849 H   0  0  0  0  0  0  0  0  0  0  0  0
   18.8530   19.0521   21.6504 H   0  0  0  0  0  0  0  0  0  0  0  0
   20.0296   20.8578   21.5157 C   0  0  0  0  0  0  0  0  0  0  0  0
   20.5701   20.5628   20.6054 H   0  0  0  0  0  0  0  0  0  0  0  0
   19.1409   21.4100   21.1791 H   0  0  0  0  0  0  0  0  0  0  0  0
   20.9120   21.8048   22.3608 C   0  0  0  0  0  0  0  0  0  0  0  0
   21.8720   21.3406   22.6181 H   0  0  0  0  0  0  0  0  0  0  0  0
   21.1307   22.7249   21.8035 H   0  0  0  0  0  0  0  0  0  0  0  0
   20.4064   22.0897   23.2925 H   0  0  0  0  0  0  0  0  0  0  0  0
  1  2  1  0  0  0  0
  1  3  1  0  0  0  0
  1  4  1  0  0  0  0
  1  5  1  0  0  0  0
  5  6  1  0  0  0  0
  5  7  1  0  0  0  0
  5  8  1  0  0  0  0
  8  9  1  0  0  0  0
  8 10  1  0  0  0  0
  8 11  1  0  0  0  0
 11 12  1  0  0  0  0
 11 13  1  0  0  0  0
 11 14  1  0  0  0  0
 14 15  1  0  0  0  0
 14 16  1  0  0  0  0
 14 17  1  0  0  0  0
 17 18  1  0  0  0  0
 17 19  1  0  0  0  0
 17 20  1  0  0  0  0
M  END
> <VConfSearch Rank>
564

> <Conf_Id>
33

> <Delta U+W>
0.703

> <U+W>
-11.075

> <U>
47.080

> <W>
-58.154

> <W(PB)>
-60.053

> <W(SA)>
1.899

> <Valence>
1.943

> <Coulomb>
44.572

> <VdW>
0.565

> <VdW6>
-4.575

> <VdW12>
5.139

> <Bond>
0.158

> <Angle>
0.700

> <Pdih>
1.085

> <Idih>
0.000

> <Tether>
0.000

$$$$
VeraChem MOL file


 20 19  0  0  0  0  0  0  0  0999 V2000     
   20.6146   19.2519   25.1869 N   0  3  0  0  0  0  0  0  0  0  0  0
   20.3963   18.9869   26.1532 H   0  0  0  0  0  0  0  0  0  0  0  0
   21.6199   19.4478   25.1518 H   0  0  0  0  0  0  0  0  0  0  0  0
   20.1277   20.1339   25.0026 H   0  0  0  0  0  0  0  0  0  0  0  0
   20.2153   18.1693   24.2027 C   0  0  0  0  0  0  0  0  0  0  0  0
   19.1412   17.9938   24.3075 H   0  0  0  0  0  0  0  0  0  0  0  0
   20.7387   17.2530   24.4891 H   0  0  0  0  0  0  0  0  0  0  0  0
   20.5449   18.5066   22.7352 C   0  0  0  0  0  0  0  0  0  0  0  0
   21.6213   18.6995   22.6365 H   0  0  0  0  0  0  0  0  0  0  0  0
   20.3276   17.6197   22.1272 H   0  0  0  0  0  0  0  0  0  0  0  0
   19.7367   19.7170   22.2033 C   0  0  0  0  0  0  0  0  0  0  0  0
   19.9298   20.5925   22.8373 H   0  0  0  0  0  0  0  0  0  0  0  0
   18.6610   19.5078   22.2844 H   0  0  0  0  0  0  0  0  0  0  0  0
   20.0811   20.0938   20.7416 C   0  0  0  0  0  0  0  0  0  0  0  0
   19.5534   21.0229   20.4840 H   0  0  0  0  0  0  0  0  0  0  0  0
   21.1539   20.3174   20.6581 H   0  0  0  0  0  0  0  0  0  0  0  0
   19.6956   19.0031   19.7163 C   0  0  0  0  0  0  0  0  0  0  0  0
   18.6335   18.7388   19.8009 H   0  0  0  0  0  0  0  0  0  0  0  0
   19.8717   19.3589   18.6929 H   0  0  0  0  0  0  0  0  0  0  0  0
   20.2894   18.0911   19.8537 H   0  0  0  0  0  0  0  0  0  0  0  0
  1  2  1  0  0  0  0
  1  3  1  0  0  0  0
  1  4  1  0  0  0  0
  1  5  1  0  0  0  0
  5  6  1  0  0  0  0
  5  7  1  0  0  0  0
  5  8  1  0  0  0  0
  8  9  1  0  0  0  0
  8 10  1  0  0  0  0
  8 11  1  0  0  0  0
 11 12  1  0  0  0  0
 11 13  1  0  0  0  0
 11 14  1  0  0  0  0
 14 15  1  0  0  0  0
 14 16  1  0  0  0  0
 14 17  1  0  0  0  0
 17 18  1  0  0  0  0
 17 19  1  0  0  0  0
 17 20  1  0  0  0  0
M  END
> <VConfSearch Rank>
565

> <Conf_Id>
24

> <Delta U+W>
0.847

> <U+W>
-10.931

> <U>
47.080

> <W>
-58.011

> <W(PB)>
-59.914

> <W(SA)>
1.903

> <Valence>
1.943

> <Coulomb>
44.572

> <VdW>
0.565

> <VdW6>
-4.575

> <VdW12>
5.140

> <Bond>
0.158

> <Angle>
0.700

> <Pdih>
1.085

> <Idih>
0.000

> <Tether>
0.000

$$$$
VeraChem MOL file


 20 19  0  0  0  0  0  0  0  0999 V2000     
   18.6434   21.1323   21.2190 N   0  3  0  0  0  0  0  0  0  0  0  0
   17.7397   21.5136   21.5182 H   0  0  0  0  0  0  0  0  0  0  0  0
   19.3490   21.8482   21.4186 H   0  0  0  0  0  0  0  0  0  0  0  0
   18.5992   21.0287   20.2003 H   0  0  0  0  0  0  0  0  0  0  0  0
   18.9570   19.8198   21.9085 C   0  0  0  0  0  0  0  0  0  0  0  0
   18.1530   19.1159   21.6771 H   0  0  0  0  0  0  0  0  0  0  0  0
   18.9577   19.9988   22.9869 H   0  0  0  0  0  0  0  0  0  0  0  0
   20.3097   19.2197   21.4811 C   0  0  0  0  0  0  0  0  0  0  0  0
   20.3136   19.0828   20.3916 H   0  0  0  0  0  0  0  0  0  0  0  0
   21.1165   19.9294   21.7046 H   0  0  0  0  0  0  0  0  0  0  0  0
   20.6009   17.8564   22.1568 C   0  0  0  0  0  0  0  0  0  0  0  0
   21.5703   17.4819   21.8000 H   0  0  0  0  0  0  0  0  0  0  0  0
   19.8526   17.1251   21.8211 H   0  0  0  0  0  0  0  0  0  0  0  0
   20.6086   17.8865   23.7067 C   0  0  0  0  0  0  0  0  0  0  0  0
   19.6138   18.1573   24.0861 H   0  0  0  0  0  0  0  0  0  0  0  0
   20.8049   16.8701   24.0758 H   0  0  0  0  0  0  0  0  0  0  0  0
   21.6684   18.8439   24.2976 C   0  0  0  0  0  0  0  0  0  0  0  0
   21.6962   18.7586   25.3916 H   0  0  0  0  0  0  0  0  0  0  0  0
   22.6705   18.6069   23.9171 H   0  0  0  0  0  0  0  0  0  0  0  0
   21.4463   19.8903   24.0541 H   0  0  0  0  0  0  0  0  0  0  0  0
  1  2  1  0  0  0  0
  1  3  1  0  0  0  0
  1  4  1  0  0  0  0
  1  5  1  0  0  0  0
  5  6  1  0  0  0  0
  5  7  1  0  0  0  0
  5  8  1  0  0  0  0
  8  9  1  0  0  0  0
  8 10  1  0  0  0  0
  8 11  1  0  0  0  0
 11 12  1  0  0  0  0
 11 13  1  0  0  0  0
 11 14  1  0  0  0  0
 14 15  1  0  0  0  0
 14 16  1  0  0  0  0
 14 17  1  0  0  0  0
 17 18  1  0  0  0  0
 17 19  1  0  0  0  0
 17 20  1  0  0  0  0
M  END
> <VConfSearch Rank>
566

> <Conf_Id>
64

> <Delta U+W>
0.707

> <U+W>
-11.070

> <U>
47.077

> <W>
-58.148

> <W(PB)>
-60.054

> <W(SA)>
1.906

> <Valence>
2.039

> <Coulomb>
44.655

> <VdW>
0.383

> <VdW6>
-4.912

> <VdW12>
5.295

> <Bond>
0.159

> <Angle>
0.856

> <Pdih>
1.024

> <Idih>
0.000

> <Tether>
0.000

$$$$
VeraChem MOL file


 20 19  0  0  0  0  0  0  0  0999 V2000     
   18.2971   18.4165   24.3608 N   0  3  0  0  0  0  0  0  0  0  0  0
   17.9607   19.2109   24.9141 H   0  0  0  0  0  0  0  0  0  0  0  0
   17.6005   18.2420   23.6298 H   0  0  0  0  0  0  0  0  0  0  0  0
   18.2899   17.5990   24.9799 H   0  0  0  0  0  0  0  0  0  0  0  0
   19.6740   18.6725   23.7820 C   0  0  0  0  0  0  0  0  0  0  0  0
   19.9795   17.7774   23.2338 H   0  0  0  0  0  0  0  0  0  0  0  0
   20.3682   18.8204   24.6136 H   0  0  0  0  0  0  0  0  0  0  0  0
   19.7193   19.8949   22.8459 C   0  0  0  0  0  0  0  0  0  0  0  0
   19.0160   19.7515   22.0157 H   0  0  0  0  0  0  0  0  0  0  0  0
   19.3712   20.7802   23.3944 H   0  0  0  0  0  0  0  0  0  0  0  0
   21.1396   20.1756   22.2947 C   0  0  0  0  0  0  0  0  0  0  0  0
   21.8009   20.4402   23.1315 H   0  0  0  0  0  0  0  0  0  0  0  0
   21.1017   21.0628   21.6477 H   0  0  0  0  0  0  0  0  0  0  0  0
   21.7764   19.0014   21.5080 C   0  0  0  0  0  0  0  0  0  0  0  0
   22.7821   19.3024   21.1827 H   0  0  0  0  0  0  0  0  0  0  0  0
   21.9205   18.1357   22.1687 H   0  0  0  0  0  0  0  0  0  0  0  0
   20.9580   18.5776   20.2671 C   0  0  0  0  0  0  0  0  0  0  0  0
   20.7822   19.4312   19.5997 H   0  0  0  0  0  0  0  0  0  0  0  0
   21.4958   17.8101   19.6957 H   0  0  0  0  0  0  0  0  0  0  0  0
   19.9855   18.1563   20.5507 H   0  0  0  0  0  0  0  0  0  0  0  0
  1  2  1  0  0  0  0
  1  3  1  0  0  0  0
  1  4  1  0  0  0  0
  1  5  1  0  0  0  0
  5  6  1  0  0  0  0
  5  7  1  0  0  0  0
  5  8  1  0  0  0  0
  8  9  1  0  0  0  0
  8 10  1  0  0  0  0
  8 11  1  0  0  0  0
 11 12  1  0  0  0  0
 11 13  1  0  0  0  0
 11 14  1  0  0  0  0
 14 15  1  0  0  0  0
 14 16  1  0  0  0  0
 14 17  1  0  0  0  0
 17 18  1  0  0  0  0
 17 19  1  0  0  0  0
 17 20  1  0  0  0  0
M  END
> <VConfSearch Rank>
567

> <Conf_Id>
22

> <Delta U+W>
0.731

> <U+W>
-11.047

> <U>
47.078

> <W>
-58.125

> <W(PB)>
-60.031

> <W(SA)>
1.906

> <Valence>
2.039

> <Coulomb>
44.655

> <VdW>
0.383

> <VdW6>
-4.913

> <VdW12>
5.296

> <Bond>
0.159

> <Angle>
0.856

> <Pdih>
1.024

> <Idih>
0.000

> <Tether>
0.000

$$$$
VeraChem MOL file


 20 19  0  0  0  0  0  0  0  0999 V2000     
   19.1667   19.6478   19.9772 N   0  3  0  0  0  0  0  0  0  0  0  0
   19.9916   19.9960   19.4785 H   0  0  0  0  0  0  0  0  0  0  0  0
   18.8725   18.7859   19.5073 H   0  0  0  0  0  0  0  0  0  0  0  0
   18.4195   20.3350   19.8323 H   0  0  0  0  0  0  0  0  0  0  0  0
   19.4478   19.4229   21.4492 C   0  0  0  0  0  0  0  0  0  0  0  0
   18.5232   19.0803   21.9218 H   0  0  0  0  0  0  0  0  0  0  0  0
   19.7249   20.3856   21.8847 H   0  0  0  0  0  0  0  0  0  0  0  0
   20.5695   18.3996   21.7006 C   0  0  0  0  0  0  0  0  0  0  0  0
   20.3329   17.4755   21.1566 H   0  0  0  0  0  0  0  0  0  0  0  0
   21.5098   18.7765   21.2768 H   0  0  0  0  0  0  0  0  0  0  0  0
   20.7766   18.0490   23.1960 C   0  0  0  0  0  0  0  0  0  0  0  0
   21.5300   17.2506   23.2462 H   0  0  0  0  0  0  0  0  0  0  0  0
   19.8574   17.6160   23.6144 H   0  0  0  0  0  0  0  0  0  0  0  0
   21.2655   19.2250   24.0809 C   0  0  0  0  0  0  0  0  0  0  0  0
   21.8453   18.8093   24.9171 H   0  0  0  0  0  0  0  0  0  0  0  0
   21.9623   19.8617   23.5181 H   0  0  0  0  0  0  0  0  0  0  0  0
   20.1215   20.0783   24.6777 C   0  0  0  0  0  0  0  0  0  0  0  0
   19.5485   20.6034   23.9064 H   0  0  0  0  0  0  0  0  0  0  0  0
   19.4255   19.4556   25.2546 H   0  0  0  0  0  0  0  0  0  0  0  0
   20.5275   20.8386   25.3575 H   0  0  0  0  0  0  0  0  0  0  0  0
  1  2  1  0  0  0  0
  1  3  1  0  0  0  0
  1  4  1  0  0  0  0
  1  5  1  0  0  0  0
  5  6  1  0  0  0  0
  5  7  1  0  0  0  0
  5  8  1  0  0  0  0
  8  9  1  0  0  0  0
  8 10  1  0  0  0  0
  8 11  1  0  0  0  0
 11 12  1  0  0  0  0
 11 13  1  0  0  0  0
 11 14  1  0  0  0  0
 14 15  1  0  0  0  0
 14 16  1  0  0  0  0
 14 17  1  0  0  0  0
 17 18  1  0  0  0  0
 17 19  1  0  0  0  0
 17 20  1  0  0  0  0
M  END
> <VConfSearch Rank>
568

> <Conf_Id>
61

> <Delta U+W>
2.669

> <U+W>
-9.108

> <U>
48.916

> <W>
-58.025

> <W(PB)>
-59.935

> <W(SA)>
1.911

> <Valence>
3.785

> <Coulomb>
44.716

> <VdW>
0.415

> <VdW6>
-4.836

> <VdW12>
5.251

> <Bond>
0.175

> <Angle>
1.195

> <Pdih>
2.415

> <Idih>
0.000

> <Tether>
0.000

$$$$
VeraChem MOL file


 20 19  0  0  0  0  0  0  0  0999 V2000     
   20.3187   17.5908   20.6615 N   0  3  0  0  0  0  0  0  0  0  0  0
   20.9413   16.9367   20.1755 H   0  0  0  0  0  0  0  0  0  0  0  0
   19.4667   17.6642   20.0966 H   0  0  0  0  0  0  0  0  0  0  0  0
   20.7728   18.5075   20.6436 H   0  0  0  0  0  0  0  0  0  0  0  0
   20.0181   17.1342   22.0763 C   0  0  0  0  0  0  0  0  0  0  0  0
   20.9632   17.0177   22.6134 H   0  0  0  0  0  0  0  0  0  0  0  0
   19.5495   16.1492   21.9997 H   0  0  0  0  0  0  0  0  0  0  0  0
   19.0809   18.0746   22.8628 C   0  0  0  0  0  0  0  0  0  0  0  0
   18.2574   18.4105   22.2188 H   0  0  0  0  0  0  0  0  0  0  0  0
   18.6147   17.4868   23.6647 H   0  0  0  0  0  0  0  0  0  0  0  0
   19.7872   19.2907   23.5155 C   0  0  0  0  0  0  0  0  0  0  0  0
   20.5693   18.9355   24.2008 H   0  0  0  0  0  0  0  0  0  0  0  0
   19.0522   19.8188   24.1387 H   0  0  0  0  0  0  0  0  0  0  0  0
   20.3999   20.2928   22.5090 C   0  0  0  0  0  0  0  0  0  0  0  0
   21.2406   19.8273   21.9794 H   0  0  0  0  0  0  0  0  0  0  0  0
   19.6504   20.5703   21.7545 H   0  0  0  0  0  0  0  0  0  0  0  0
   20.9092   21.5677   23.2148 C   0  0  0  0  0  0  0  0  0  0  0  0
   21.3492   22.2635   22.4887 H   0  0  0  0  0  0  0  0  0  0  0  0
   20.0908   22.0901   23.7272 H   0  0  0  0  0  0  0  0  0  0  0  0
   21.6793   21.3261   23.9590 H   0  0  0  0  0  0  0  0  0  0  0  0
  1  2  1  0  0  0  0
  1  3  1  0  0  0  0
  1  4  1  0  0  0  0
  1  5  1  0  0  0  0
  5  6  1  0  0  0  0
  5  7  1  0  0  0  0
  5  8  1  0  0  0  0
  8  9  1  0  0  0  0
  8 10  1  0  0  0  0
  8 11  1  0  0  0  0
 11 12  1  0  0  0  0
 11 13  1  0  0  0  0
 11 14  1  0  0  0  0
 14 15  1  0  0  0  0
 14 16  1  0  0  0  0
 14 17  1  0  0  0  0
 17 18  1  0  0  0  0
 17 19  1  0  0  0  0
 17 20  1  0  0  0  0
M  END
> <VConfSearch Rank>
569

> <Conf_Id>
69

> <Delta U+W>
2.811

> <U+W>
-8.967

> <U>
49.216

> <W>
-58.183

> <W(PB)>
-60.064

> <W(SA)>
1.881

> <Valence>
2.929

> <Coulomb>
46.006

> <VdW>
0.281

> <VdW6>
-4.909

> <VdW12>
5.190

> <Bond>
0.156

> <Angle>
0.974

> <Pdih>
1.799

> <Idih>
0.000

> <Tether>
0.000

$$$$
VeraChem MOL file


 20 19  0  0  0  0  0  0  0  0999 V2000     
   19.2303   19.9042   24.4256 N   0  3  0  0  0  0  0  0  0  0  0  0
   19.7034   19.0002   24.3489 H   0  0  0  0  0  0  0  0  0  0  0  0
   19.9007   20.5628   24.8343 H   0  0  0  0  0  0  0  0  0  0  0  0
   18.4726   19.7908   25.1073 H   0  0  0  0  0  0  0  0  0  0  0  0
   18.7118   20.3886   23.0851 C   0  0  0  0  0  0  0  0  0  0  0  0
   18.2146   21.3460   23.2636 H   0  0  0  0  0  0  0  0  0  0  0  0
   17.9610   19.6802   22.7249 H   0  0  0  0  0  0  0  0  0  0  0  0
   19.8045   20.5842   22.0131 C   0  0  0  0  0  0  0  0  0  0  0  0
   19.4173   21.2911   21.2672 H   0  0  0  0  0  0  0  0  0  0  0  0
   20.6850   21.0677   22.4568 H   0  0  0  0  0  0  0  0  0  0  0  0
   20.2171   19.2881   21.2690 C   0  0  0  0  0  0  0  0  0  0  0  0
   20.9068   19.5639   20.4592 H   0  0  0  0  0  0  0  0  0  0  0  0
   19.3352   18.8489   20.7823 H   0  0  0  0  0  0  0  0  0  0  0  0
   20.8965   18.2241   22.1625 C   0  0  0  0  0  0  0  0  0  0  0  0
   21.7144   18.6837   22.7350 H   0  0  0  0  0  0  0  0  0  0  0  0
   20.1750   17.8243   22.8861 H   0  0  0  0  0  0  0  0  0  0  0  0
   21.4547   17.0524   21.3267 C   0  0  0  0  0  0  0  0  0  0  0  0
   22.2127   17.4011   20.6132 H   0  0  0  0  0  0  0  0  0  0  0  0
   21.9245   16.3021   21.9759 H   0  0  0  0  0  0  0  0  0  0  0  0
   20.6559   16.5552   20.7610 H   0  0  0  0  0  0  0  0  0  0  0  0
  1  2  1  0  0  0  0
  1  3  1  0  0  0  0
  1  4  1  0  0  0  0
  1  5  1  0  0  0  0
  5  6  1  0  0  0  0
  5  7  1  0  0  0  0
  5  8  1  0  0  0  0
  8  9  1  0  0  0  0
  8 10  1  0  0  0  0
  8 11  1  0  0  0  0
 11 12  1  0  0  0  0
 11 13  1  0  0  0  0
 11 14  1  0  0  0  0
 14 15  1  0  0  0  0
 14 16  1  0  0  0  0
 14 17  1  0  0  0  0
 17 18  1  0  0  0  0
 17 19  1  0  0  0  0
 17 20  1  0  0  0  0
M  END
> <VConfSearch Rank>
570

> <Conf_Id>
26

> <Delta U+W>
2.809

> <U+W>
-8.969

> <U>
49.216

> <W>
-58.185

> <W(PB)>
-60.088

> <W(SA)>
1.903

> <Valence>
2.929

> <Coulomb>
46.006

> <VdW>
0.281

> <VdW6>
-4.909

> <VdW12>
5.190

> <Bond>
0.156

> <Angle>
0.974

> <Pdih>
1.799

> <Idih>
0.000

> <Tether>
0.000

$$$$
VeraChem MOL file


 20 19  0  0  0  0  0  0  0  0999 V2000     
   20.5175   18.7105   24.8064 N   0  3  0  0  0  0  0  0  0  0  0  0
   19.6990   18.1640   24.5228 H   0  0  0  0  0  0  0  0  0  0  0  0
   21.2617   18.0444   25.0355 H   0  0  0  0  0  0  0  0  0  0  0  0
   20.2702   19.1927   25.6769 H   0  0  0  0  0  0  0  0  0  0  0  0
   20.9448   19.6833   23.7248 C   0  0  0  0  0  0  0  0  0  0  0  0
   21.7983   20.2509   24.1056 H   0  0  0  0  0  0  0  0  0  0  0  0
   20.1225   20.3826   23.5523 H   0  0  0  0  0  0  0  0  0  0  0  0
   21.3347   19.0019   22.3974 C   0  0  0  0  0  0  0  0  0  0  0  0
   21.7016   19.7671   21.7014 H   0  0  0  0  0  0  0  0  0  0  0  0
   22.1829   18.3277   22.5753 H   0  0  0  0  0  0  0  0  0  0  0  0
   20.1800   18.2057   21.7344 C   0  0  0  0  0  0  0  0  0  0  0  0
   19.9266   17.3415   22.3631 H   0  0  0  0  0  0  0  0  0  0  0  0
   20.5395   17.7864   20.7846 H   0  0  0  0  0  0  0  0  0  0  0  0
   18.8928   19.0273   21.4679 C   0  0  0  0  0  0  0  0  0  0  0  0
   18.1397   18.3638   21.0201 H   0  0  0  0  0  0  0  0  0  0  0  0
   18.4613   19.3765   22.4157 H   0  0  0  0  0  0  0  0  0  0  0  0
   19.1182   20.2315   20.5255 C   0  0  0  0  0  0  0  0  0  0  0  0
   19.5650   19.9110   19.5754 H   0  0  0  0  0  0  0  0  0  0  0  0
   18.1648   20.7256   20.2981 H   0  0  0  0  0  0  0  0  0  0  0  0
   19.7778   20.9809   20.9804 H   0  0  0  0  0  0  0  0  0  0  0  0
  1  2  1  0  0  0  0
  1  3  1  0  0  0  0
  1  4  1  0  0  0  0
  1  5  1  0  0  0  0
  5  6  1  0  0  0  0
  5  7  1  0  0  0  0
  5  8  1  0  0  0  0
  8  9  1  0  0  0  0
  8 10  1  0  0  0  0
  8 11  1  0  0  0  0
 11 12  1  0  0  0  0
 11 13  1  0  0  0  0
 11 14  1  0  0  0  0
 14 15  1  0  0  0  0
 14 16  1  0  0  0  0
 14 17  1  0  0  0  0
 17 18  1  0  0  0  0
 17 19  1  0  0  0  0
 17 20  1  0  0  0  0
M  END
> <VConfSearch Rank>
571

> <Conf_Id>
2

> <Delta U+W>
0.994

> <U+W>
-10.784

> <U>
47.562

> <W>
-58.346

> <W(PB)>
-60.221

> <W(SA)>
1.875

> <Valence>
2.149

> <Coulomb>
45.034

> <VdW>
0.378

> <VdW6>
-5.599

> <VdW12>
5.977

> <Bond>
0.185

> <Angle>
0.935

> <Pdih>
1.028

> <Idih>
0.000

> <Tether>
0.000

$$$$
VeraChem MOL file


 20 19  0  0  0  0  0  0  0  0999 V2000     
   18.8742   17.0456   22.3182 N   0  3  0  0  0  0  0  0  0  0  0  0
   18.3796   16.7439   23.1634 H   0  0  0  0  0  0  0  0  0  0  0  0
   18.3157   17.7898   21.8901 H   0  0  0  0  0  0  0  0  0  0  0  0
   18.8665   16.2523   21.6686 H   0  0  0  0  0  0  0  0  0  0  0  0
   20.2849   17.5089   22.6255 C   0  0  0  0  0  0  0  0  0  0  0  0
   20.7654   17.7838   21.6829 H   0  0  0  0  0  0  0  0  0  0  0  0
   20.8293   16.6604   23.0487 H   0  0  0  0  0  0  0  0  0  0  0  0
   20.3469   18.6973   23.6064 C   0  0  0  0  0  0  0  0  0  0  0  0
   19.8924   18.3996   24.5606 H   0  0  0  0  0  0  0  0  0  0  0  0
   21.3986   18.9159   23.8314 H   0  0  0  0  0  0  0  0  0  0  0  0
   19.6479   19.9811   23.0866 C   0  0  0  0  0  0  0  0  0  0  0  0
   19.7718   20.7780   23.8328 H   0  0  0  0  0  0  0  0  0  0  0  0
   18.5661   19.8039   23.0188 H   0  0  0  0  0  0  0  0  0  0  0  0
   20.1601   20.4905   21.7150 C   0  0  0  0  0  0  0  0  0  0  0  0
   19.9580   19.7460   20.9331 H   0  0  0  0  0  0  0  0  0  0  0  0
   19.5851   21.3845   21.4359 H   0  0  0  0  0  0  0  0  0  0  0  0
   21.6641   20.8466   21.7161 C   0  0  0  0  0  0  0  0  0  0  0  0
   22.2881   19.9588   21.8779 H   0  0  0  0  0  0  0  0  0  0  0  0
   21.9564   21.2842   20.7527 H   0  0  0  0  0  0  0  0  0  0  0  0
   21.8961   21.5780   22.5010 H   0  0  0  0  0  0  0  0  0  0  0  0
  1  2  1  0  0  0  0
  1  3  1  0  0  0  0
  1  4  1  0  0  0  0
  1  5  1  0  0  0  0
  5  6  1  0  0  0  0
  5  7  1  0  0  0  0
  5  8  1  0  0  0  0
  8  9  1  0  0  0  0
  8 10  1  0  0  0  0
  8 11  1  0  0  0  0
 11 12  1  0  0  0  0
 11 13  1  0  0  0  0
 11 14  1  0  0  0  0
 14 15  1  0  0  0  0
 14 16  1  0  0  0  0
 14 17  1  0  0  0  0
 17 18  1  0  0  0  0
 17 19  1  0  0  0  0
 17 20  1  0  0  0  0
M  END
> <VConfSearch Rank>
572

> <Conf_Id>
1

> <Delta U+W>
1.032

> <U+W>
-10.746

> <U>
47.562

> <W>
-58.308

> <W(PB)>
-60.184

> <W(SA)>
1.877

> <Valence>
2.149

> <Coulomb>
45.035

> <VdW>
0.378

> <VdW6>
-5.599

> <VdW12>
5.978

> <Bond>
0.185

> <Angle>
0.935

> <Pdih>
1.028

> <Idih>
0.000

> <Tether>
0.000

$$$$
VeraChem MOL file


 20 19  0  0  0  0  0  0  0  0999 V2000     
   21.6745   20.3863   21.1545 N   0  3  0  0  0  0  0  0  0  0  0  0
   21.5669   20.3479   20.1361 H   0  0  0  0  0  0  0  0  0  0  0  0
   20.9425   21.0061   21.5132 H   0  0  0  0  0  0  0  0  0  0  0  0
   22.5727   20.8438   21.3423 H   0  0  0  0  0  0  0  0  0  0  0  0
   21.6029   19.0075   21.7820 C   0  0  0  0  0  0  0  0  0  0  0  0
   21.7552   19.1190   22.8566 H   0  0  0  0  0  0  0  0  0  0  0  0
   22.4358   18.4218   21.3835 H   0  0  0  0  0  0  0  0  0  0  0  0
   20.2806   18.2624   21.5010 C   0  0  0  0  0  0  0  0  0  0  0  0
   20.1608   18.1803   20.4125 H   0  0  0  0  0  0  0  0  0  0  0  0
   20.3576   17.2322   21.8731 H   0  0  0  0  0  0  0  0  0  0  0  0
   19.0154   18.9375   22.0957 C   0  0  0  0  0  0  0  0  0  0  0  0
   18.1476   18.5976   21.5135 H   0  0  0  0  0  0  0  0  0  0  0  0
   19.0538   20.0252   21.9541 H   0  0  0  0  0  0  0  0  0  0  0  0
   18.7326   18.6067   23.5838 C   0  0  0  0  0  0  0  0  0  0  0  0
   17.7713   19.0618   23.8610 H   0  0  0  0  0  0  0  0  0  0  0  0
   18.5995   17.5224   23.7037 H   0  0  0  0  0  0  0  0  0  0  0  0
   19.8127   19.1037   24.5698 C   0  0  0  0  0  0  0  0  0  0  0  0
   20.0528   20.1610   24.3991 H   0  0  0  0  0  0  0  0  0  0  0  0
   19.4605   19.0030   25.6045 H   0  0  0  0  0  0  0  0  0  0  0  0
   20.7335   18.5147   24.4839 H   0  0  0  0  0  0  0  0  0  0  0  0
  1  2  1  0  0  0  0
  1  3  1  0  0  0  0
  1  4  1  0  0  0  0
  1  5  1  0  0  0  0
  5  6  1  0  0  0  0
  5  7  1  0  0  0  0
  5  8  1  0  0  0  0
  8  9  1  0  0  0  0
  8 10  1  0  0  0  0
  8 11  1  0  0  0  0
 11 12  1  0  0  0  0
 11 13  1  0  0  0  0
 11 14  1  0  0  0  0
 14 15  1  0  0  0  0
 14 16  1  0  0  0  0
 14 17  1  0  0  0  0
 17 18  1  0  0  0  0
 17 19  1  0  0  0  0
 17 20  1  0  0  0  0
M  END
> <VConfSearch Rank>
573

> <Conf_Id>
80

> <Delta U+W>
2.920

> <U+W>
-8.857

> <U>
49.434

> <W>
-58.292

> <W(PB)>
-60.170

> <W(SA)>
1.879

> <Valence>
3.798

> <Coulomb>
45.253

> <VdW>
0.384

> <VdW6>
-5.595

> <VdW12>
5.979

> <Bond>
0.198

> <Angle>
1.368

> <Pdih>
2.231

> <Idih>
0.000

> <Tether>
0.000

$$$$
VeraChem MOL file


 20 19  0  0  0  0  0  0  0  0999 V2000     
   20.2141   20.9169   24.0688 N   0  3  0  0  0  0  0  0  0  0  0  0
   19.8488   21.8367   23.8033 H   0  0  0  0  0  0  0  0  0  0  0  0
   20.3172   20.9203   25.0890 H   0  0  0  0  0  0  0  0  0  0  0  0
   21.1555   20.8391   23.6735 H   0  0  0  0  0  0  0  0  0  0  0  0
   19.3106   19.7935   23.5981 C   0  0  0  0  0  0  0  0  0  0  0  0
   18.3438   19.9205   24.0928 H   0  0  0  0  0  0  0  0  0  0  0  0
   19.7407   18.8507   23.9397 H   0  0  0  0  0  0  0  0  0  0  0  0
   19.0966   19.7642   22.0697 C   0  0  0  0  0  0  0  0  0  0  0  0
   18.3350   19.0125   21.8236 H   0  0  0  0  0  0  0  0  0  0  0  0
   18.6732   20.7310   21.7667 H   0  0  0  0  0  0  0  0  0  0  0  0
   20.3804   19.4959   21.2389 C   0  0  0  0  0  0  0  0  0  0  0  0
   21.2302   20.0583   21.6465 H   0  0  0  0  0  0  0  0  0  0  0  0
   20.2190   19.9007   20.2302 H   0  0  0  0  0  0  0  0  0  0  0  0
   20.7609   18.0010   21.0823 C   0  0  0  0  0  0  0  0  0  0  0  0
   19.9430   17.4604   20.5856 H   0  0  0  0  0  0  0  0  0  0  0  0
   21.6231   17.9344   20.4040 H   0  0  0  0  0  0  0  0  0  0  0  0
   21.1205   17.2868   22.4039 C   0  0  0  0  0  0  0  0  0  0  0  0
   20.2317   17.1247   23.0251 H   0  0  0  0  0  0  0  0  0  0  0  0
   21.5552   16.3000   22.1985 H   0  0  0  0  0  0  0  0  0  0  0  0
   21.8549   17.8626   22.9817 H   0  0  0  0  0  0  0  0  0  0  0  0
  1  2  1  0  0  0  0
  1  3  1  0  0  0  0
  1  4  1  0  0  0  0
  1  5  1  0  0  0  0
  5  6  1  0  0  0  0
  5  7  1  0  0  0  0
  5  8  1  0  0  0  0
  8  9  1  0  0  0  0
  8 10  1  0  0  0  0
  8 11  1  0  0  0  0
 11 12  1  0  0  0  0
 11 13  1  0  0  0  0
 11 14  1  0  0  0  0
 14 15  1  0  0  0  0
 14 16  1  0  0  0  0
 14 17  1  0  0  0  0
 17 18  1  0  0  0  0
 17 19  1  0  0  0  0
 17 20  1  0  0  0  0
M  END
> <VConfSearch Rank>
574

> <Conf_Id>
65

> <Delta U+W>
2.949

> <U+W>
-8.829

> <U>
49.435

> <W>
-58.263

> <W(PB)>
-60.125

> <W(SA)>
1.862

> <Valence>
3.797

> <Coulomb>
45.253

> <VdW>
0.384

> <VdW6>
-5.596

> <VdW12>
5.980

> <Bond>
0.198

> <Angle>
1.369

> <Pdih>
2.230

> <Idih>
0.000

> <Tether>
0.000

$$$$
VeraChem MOL file


 20 19  0  0  0  0  0  0  0  0999 V2000     
   20.5224   20.4082   23.9846 N   0  3  0  0  0  0  0  0  0  0  0  0
   20.4300   21.4006   24.2261 H   0  0  0  0  0  0  0  0  0  0  0  0
   19.5791   20.0450   23.8171 H   0  0  0  0  0  0  0  0  0  0  0  0
   20.8895   19.9324   24.8148 H   0  0  0  0  0  0  0  0  0  0  0  0
   21.4165   20.2028   22.7771 C   0  0  0  0  0  0  0  0  0  0  0  0
   22.3979   20.6112   23.0332 H   0  0  0  0  0  0  0  0  0  0  0  0
   21.0157   20.7823   21.9412 H   0  0  0  0  0  0  0  0  0  0  0  0
   21.5785   18.7266   22.3612 C   0  0  0  0  0  0  0  0  0  0  0  0
   22.5160   18.6403   21.7960 H   0  0  0  0  0  0  0  0  0  0  0  0
   21.7100   18.1011   23.2541 H   0  0  0  0  0  0  0  0  0  0  0  0
   20.4373   18.1604   21.4742 C   0  0  0  0  0  0  0  0  0  0  0  0
   20.7079   17.1285   21.2105 H   0  0  0  0  0  0  0  0  0  0  0  0
   20.3981   18.7057   20.5211 H   0  0  0  0  0  0  0  0  0  0  0  0
   19.0333   18.1350   22.1306 C   0  0  0  0  0  0  0  0  0  0  0  0
   18.5026   17.2358   21.7870 H   0  0  0  0  0  0  0  0  0  0  0  0
   19.1202   18.0279   23.2202 H   0  0  0  0  0  0  0  0  0  0  0  0
   18.1681   19.3637   21.7624 C   0  0  0  0  0  0  0  0  0  0  0  0
   18.6592   20.3114   22.0081 H   0  0  0  0  0  0  0  0  0  0  0  0
   17.9522   19.3750   20.6860 H   0  0  0  0  0  0  0  0  0  0  0  0
   17.2067   19.3325   22.2915 H   0  0  0  0  0  0  0  0  0  0  0  0
  1  2  1  0  0  0  0
  1  3  1  0  0  0  0
  1  4  1  0  0  0  0
  1  5  1  0  0  0  0
  5  6  1  0  0  0  0
  5  7  1  0  0  0  0
  5  8  1  0  0  0  0
  8  9  1  0  0  0  0
  8 10  1  0  0  0  0
  8 11  1  0  0  0  0
 11 12  1  0  0  0  0
 11 13  1  0  0  0  0
 11 14  1  0  0  0  0
 14 15  1  0  0  0  0
 14 16  1  0  0  0  0
 14 17  1  0  0  0  0
 17 18  1  0  0  0  0
 17 19  1  0  0  0  0
 17 20  1  0  0  0  0
M  END
> <VConfSearch Rank>
575

> <Conf_Id>
77

> <Delta U+W>
5.366

> <U+W>
-6.412

> <U>
51.542

> <W>
-57.954

> <W(PB)>
-59.811

> <W(SA)>
1.857

> <Valence>
5.347

> <Coulomb>
45.870

> <VdW>
0.325

> <VdW6>
-6.161

> <VdW12>
6.486

> <Bond>
0.201

> <Angle>
1.484

> <Pdih>
3.662

> <Idih>
0.000

> <Tether>
0.000

$$$$
VeraChem MOL file


 20 19  0  0  0  0  0  0  0  0999 V2000     
   19.4722   20.7241   21.7531 N   0  3  0  0  0  0  0  0  0  0  0  0
   18.9552   20.6433   20.8719 H   0  0  0  0  0  0  0  0  0  0  0  0
   18.9730   20.1652   22.4518 H   0  0  0  0  0  0  0  0  0  0  0  0
   19.4116   21.7051   22.0456 H   0  0  0  0  0  0  0  0  0  0  0  0
   20.9108   20.2679   21.6051 C   0  0  0  0  0  0  0  0  0  0  0  0
   21.4313   20.4360   22.5516 H   0  0  0  0  0  0  0  0  0  0  0  0
   21.3718   20.9062   20.8465 H   0  0  0  0  0  0  0  0  0  0  0  0
   21.0598   18.7929   21.1800 C   0  0  0  0  0  0  0  0  0  0  0  0
   20.3256   18.5551   20.3989 H   0  0  0  0  0  0  0  0  0  0  0  0
   22.0448   18.6798   20.7079 H   0  0  0  0  0  0  0  0  0  0  0  0
   20.9670   17.7593   22.3346 C   0  0  0  0  0  0  0  0  0  0  0  0
   21.7886   17.9185   23.0466 H   0  0  0  0  0  0  0  0  0  0  0  0
   21.1440   16.7655   21.9003 H   0  0  0  0  0  0  0  0  0  0  0  0
   19.6120   17.7198   23.0862 C   0  0  0  0  0  0  0  0  0  0  0  0
   18.7932   18.0199   22.4185 H   0  0  0  0  0  0  0  0  0  0  0  0
   19.3976   16.6788   23.3666 H   0  0  0  0  0  0  0  0  0  0  0  0
   19.6100   18.5676   24.3804 C   0  0  0  0  0  0  0  0  0  0  0  0
   18.6174   18.5558   24.8492 H   0  0  0  0  0  0  0  0  0  0  0  0
   20.3239   18.1614   25.1089 H   0  0  0  0  0  0  0  0  0  0  0  0
   19.8860   19.6118   24.1983 H   0  0  0  0  0  0  0  0  0  0  0  0
  1  2  1  0  0  0  0
  1  3  1  0  0  0  0
  1  4  1  0  0  0  0
  1  5  1  0  0  0  0
  5  6  1  0  0  0  0
  5  7  1  0  0  0  0
  5  8  1  0  0  0  0
  8  9  1  0  0  0  0
  8 10  1  0  0  0  0
  8 11  1  0  0  0  0
 11 12  1  0  0  0  0
 11 13  1  0  0  0  0
 11 14  1  0  0  0  0
 14 15  1  0  0  0  0
 14 16  1  0  0  0  0
 14 17  1  0  0  0  0
 17 18  1  0  0  0  0
 17 19  1  0  0  0  0
 17 20  1  0  0  0  0
M  END
> <VConfSearch Rank>
576

> <Conf_Id>
67

> <Delta U+W>
5.353

> <U+W>
-6.425

> <U>
51.541

> <W>
-57.966

> <W(PB)>
-59.821

> <W(SA)>
1.855

> <Valence>
5.347

> <Coulomb>
45.870

> <VdW>
0.325

> <VdW6>
-6.161

> <VdW12>
6.486

> <Bond>
0.201

> <Angle>
1.485

> <Pdih>
3.662

> <Idih>
0.000

> <Tether>
0.000

$$$$
VeraChem MOL file


 20 19  0  0  0  0  0  0  0  0999 V2000     
   22.0139   21.7244   22.8189 N   0  3  0  0  0  0  0  0  0  0  0  0
   21.7107   21.9900   23.7612 H   0  0  0  0  0  0  0  0  0  0  0  0
   23.0121   21.9500   22.7532 H   0  0  0  0  0  0  0  0  0  0  0  0
   21.5263   22.3405   22.1608 H   0  0  0  0  0  0  0  0  0  0  0  0
   21.7470   20.2611   22.5290 C   0  0  0  0  0  0  0  0  0  0  0  0
   22.3191   19.6653   23.2455 H   0  0  0  0  0  0  0  0  0  0  0  0
   22.1207   20.0423   21.5250 H   0  0  0  0  0  0  0  0  0  0  0  0
   20.2563   19.8886   22.6194 C   0  0  0  0  0  0  0  0  0  0  0  0
   19.8814   20.1248   23.6242 H   0  0  0  0  0  0  0  0  0  0  0  0
   19.6836   20.5004   21.9097 H   0  0  0  0  0  0  0  0  0  0  0  0
   20.0279   18.3908   22.3176 C   0  0  0  0  0  0  0  0  0  0  0  0
   20.6064   17.7816   23.0261 H   0  0  0  0  0  0  0  0  0  0  0  0
   20.4088   18.1568   21.3136 H   0  0  0  0  0  0  0  0  0  0  0  0
   18.5342   18.0051   22.4055 C   0  0  0  0  0  0  0  0  0  0  0  0
   18.1496   18.2356   23.4090 H   0  0  0  0  0  0  0  0  0  0  0  0
   17.9520   18.6106   21.6967 H   0  0  0  0  0  0  0  0  0  0  0  0
   18.3108   16.5079   22.1033 C   0  0  0  0  0  0  0  0  0  0  0  0
   18.8536   15.8754   22.8179 H   0  0  0  0  0  0  0  0  0  0  0  0
   17.2451   16.2535   22.1707 H   0  0  0  0  0  0  0  0  0  0  0  0
   18.6543   16.2534   21.0922 H   0  0  0  0  0  0  0  0  0  0  0  0
  1  2  1  0  0  0  0
  1  3  1  0  0  0  0
  1  4  1  0  0  0  0
  1  5  1  0  0  0  0
  5  6  1  0  0  0  0
  5  7  1  0  0  0  0
  5  8  1  0  0  0  0
  8  9  1  0  0  0  0
  8 10  1  0  0  0  0
  8 11  1  0  0  0  0
 11 12  1  0  0  0  0
 11 13  1  0  0  0  0
 11 14  1  0  0  0  0
 14 15  1  0  0  0  0
 14 16  1  0  0  0  0
 14 17  1  0  0  0  0
 17 18  1  0  0  0  0
 17 19  1  0  0  0  0
 17 20  1  0  0  0  0
M  END
> <VConfSearch Rank>
577

> <Conf_Id>
72

> <Delta U+W>
0.000

> <U+W>
-11.778

> <U>
45.772

> <W>
-57.550

> <W(PB)>
-59.511

> <W(SA)>
1.961

> <Valence>
1.299

> <Coulomb>
44.177

> <VdW>
0.297

> <VdW6>
-3.490

> <VdW12>
3.786

> <Bond>
0.096

> <Angle>
0.381

> <Pdih>
0.822

> <Idih>
0.000

> <Tether>
0.000

$$$$
VeraChem MOL file


 20 19  0  0  0  0  0  0  0  0999 V2000     
   18.2493   21.5098   22.8892 N   0  3  0  0  0  0  0  0  0  0  0  0
   17.4559   20.9744   22.5228 H   0  0  0  0  0  0  0  0  0  0  0  0
   18.1969   21.4646   23.9117 H   0  0  0  0  0  0  0  0  0  0  0  0
   18.0938   22.4888   22.6267 H   0  0  0  0  0  0  0  0  0  0  0  0
   19.5734   20.9902   22.3663 C   0  0  0  0  0  0  0  0  0  0  0  0
   20.3677   21.6233   22.7710 H   0  0  0  0  0  0  0  0  0  0  0  0
   19.5714   21.0956   21.2780 H   0  0  0  0  0  0  0  0  0  0  0  0
   19.8389   19.5217   22.7436 C   0  0  0  0  0  0  0  0  0  0  0  0
   19.8242   19.4175   23.8366 H   0  0  0  0  0  0  0  0  0  0  0  0
   19.0270   18.8984   22.3479 H   0  0  0  0  0  0  0  0  0  0  0  0
   21.1999   19.0350   22.1923 C   0  0  0  0  0  0  0  0  0  0  0  0
   21.9900   19.7164   22.5374 H   0  0  0  0  0  0  0  0  0  0  0  0
   21.1979   19.0958   21.0950 H   0  0  0  0  0  0  0  0  0  0  0  0
   21.5650   17.5957   22.6303 C   0  0  0  0  0  0  0  0  0  0  0  0
   22.5841   17.3702   22.2861 H   0  0  0  0  0  0  0  0  0  0  0  0
   21.5916   17.5363   23.7274 H   0  0  0  0  0  0  0  0  0  0  0  0
   20.6026   16.5212   22.0747 C   0  0  0  0  0  0  0  0  0  0  0  0
   20.5363   16.5777   20.9804 H   0  0  0  0  0  0  0  0  0  0  0  0
   20.9565   15.5159   22.3374 H   0  0  0  0  0  0  0  0  0  0  0  0
   19.5921   16.6323   22.4870 H   0  0  0  0  0  0  0  0  0  0  0  0
  1  2  1  0  0  0  0
  1  3  1  0  0  0  0
  1  4  1  0  0  0  0
  1  5  1  0  0  0  0
  5  6  1  0  0  0  0
  5  7  1  0  0  0  0
  5  8  1  0  0  0  0
  8  9  1  0  0  0  0
  8 10  1  0  0  0  0
  8 11  1  0  0  0  0
 11 12  1  0  0  0  0
 11 13  1  0  0  0  0
 11 14  1  0  0  0  0
 14 15  1  0  0  0  0
 14 16  1  0  0  0  0
 14 17  1  0  0  0  0
 17 18  1  0  0  0  0
 17 19  1  0  0  0  0
 17 20  1  0  0  0  0
M  END
> <VConfSearch Rank>
578

> <Conf_Id>
42

> <Delta U+W>
0.508

> <U+W>
-11.270

> <U>
46.486

> <W>
-57.756

> <W(PB)>
-59.705

> <W(SA)>
1.949

> <Valence>
1.806

> <Coulomb>
44.248

> <VdW>
0.433

> <VdW6>
-4.089

> <VdW12>
4.522

> <Bond>
0.131

> <Angle>
0.628

> <Pdih>
1.047

> <Idih>
0.000

> <Tether>
0.000

$$$$
VeraChem MOL file


 20 19  0  0  0  0  0  0  0  0999 V2000     
   23.0822   18.6685   21.9157 N   0  3  0  0  0  0  0  0  0  0  0  0
   23.3914   19.6197   22.1394 H   0  0  0  0  0  0  0  0  0  0  0  0
   23.1968   18.1068   22.7653 H   0  0  0  0  0  0  0  0  0  0  0  0
   23.7408   18.2972   21.2230 H   0  0  0  0  0  0  0  0  0  0  0  0
   21.6551   18.6416   21.4068 C   0  0  0  0  0  0  0  0  0  0  0  0
   21.4038   17.6062   21.1610 H   0  0  0  0  0  0  0  0  0  0  0  0
   21.6135   19.2323   20.4876 H   0  0  0  0  0  0  0  0  0  0  0  0
   20.6394   19.1934   22.4233 C   0  0  0  0  0  0  0  0  0  0  0  0
   20.7024   18.6048   23.3472 H   0  0  0  0  0  0  0  0  0  0  0  0
   20.9047   20.2277   22.6793 H   0  0  0  0  0  0  0  0  0  0  0  0
   19.1987   19.1490   21.8618 C   0  0  0  0  0  0  0  0  0  0  0  0
   18.9163   18.1086   21.6487 H   0  0  0  0  0  0  0  0  0  0  0  0
   19.1734   19.6786   20.8992 H   0  0  0  0  0  0  0  0  0  0  0  0
   18.1487   19.7879   22.8030 C   0  0  0  0  0  0  0  0  0  0  0  0
   18.4144   20.8361   22.9997 H   0  0  0  0  0  0  0  0  0  0  0  0
   17.1787   19.8091   22.2867 H   0  0  0  0  0  0  0  0  0  0  0  0
   17.9835   19.0336   24.1421 C   0  0  0  0  0  0  0  0  0  0  0  0
   18.8943   19.0881   24.7511 H   0  0  0  0  0  0  0  0  0  0  0  0
   17.1670   19.4710   24.7312 H   0  0  0  0  0  0  0  0  0  0  0  0
   17.7451   17.9755   23.9729 H   0  0  0  0  0  0  0  0  0  0  0  0
  1  2  1  0  0  0  0
  1  3  1  0  0  0  0
  1  4  1  0  0  0  0
  1  5  1  0  0  0  0
  5  6  1  0  0  0  0
  5  7  1  0  0  0  0
  5  8  1  0  0  0  0
  8  9  1  0  0  0  0
  8 10  1  0  0  0  0
  8 11  1  0  0  0  0
 11 12  1  0  0  0  0
 11 13  1  0  0  0  0
 11 14  1  0  0  0  0
 14 15  1  0  0  0  0
 14 16  1  0  0  0  0
 14 17  1  0  0  0  0
 17 18  1  0  0  0  0
 17 19  1  0  0  0  0
 17 20  1  0  0  0  0
M  END
> <VConfSearch Rank>
579

> <Conf_Id>
41

> <Delta U+W>
0.515

> <U+W>
-11.263

> <U>
46.486

> <W>
-57.749

> <W(PB)>
-59.685

> <W(SA)>
1.936

> <Valence>
1.806

> <Coulomb>
44.248

> <VdW>
0.433

> <VdW6>
-4.089

> <VdW12>
4.522

> <Bond>
0.131

> <Angle>
0.628

> <Pdih>
1.047

> <Idih>
0.000

> <Tether>
0.000

$$$$
VeraChem MOL file


 20 19  0  0  0  0  0  0  0  0999 V2000     
   21.3659   21.6105   22.4628 N   0  3  0  0  0  0  0  0  0  0  0  0
   22.1253   22.2429   22.1892 H   0  0  0  0  0  0  0  0  0  0  0  0
   20.6166   21.7295   21.7748 H   0  0  0  0  0  0  0  0  0  0  0  0
   21.0077   21.9469   23.3621 H   0  0  0  0  0  0  0  0  0  0  0  0
   21.8347   20.1705   22.5446 C   0  0  0  0  0  0  0  0  0  0  0  0
   22.6591   20.1317   23.2620 H   0  0  0  0  0  0  0  0  0  0  0  0
   22.2240   19.8833   21.5641 H   0  0  0  0  0  0  0  0  0  0  0  0
   20.7363   19.1794   22.9771 C   0  0  0  0  0  0  0  0  0  0  0  0
   21.2037   18.1969   23.1186 H   0  0  0  0  0  0  0  0  0  0  0  0
   20.3353   19.4803   23.9540 H   0  0  0  0  0  0  0  0  0  0  0  0
   19.5884   19.0690   21.9421 C   0  0  0  0  0  0  0  0  0  0  0  0
   19.9939   18.7456   20.9733 H   0  0  0  0  0  0  0  0  0  0  0  0
   19.1485   20.0614   21.7770 H   0  0  0  0  0  0  0  0  0  0  0  0
   18.4572   18.1053   22.3764 C   0  0  0  0  0  0  0  0  0  0  0  0
   18.0389   18.4325   23.3387 H   0  0  0  0  0  0  0  0  0  0  0  0
   17.6378   18.1730   21.6471 H   0  0  0  0  0  0  0  0  0  0  0  0
   18.9091   16.6306   22.4801 C   0  0  0  0  0  0  0  0  0  0  0  0
   19.6406   16.4876   23.2849 H   0  0  0  0  0  0  0  0  0  0  0  0
   18.0513   15.9806   22.6962 H   0  0  0  0  0  0  0  0  0  0  0  0
   19.3601   16.2884   21.5397 H   0  0  0  0  0  0  0  0  0  0  0  0
  1  2  1  0  0  0  0
  1  3  1  0  0  0  0
  1  4  1  0  0  0  0
  1  5  1  0  0  0  0
  5  6  1  0  0  0  0
  5  7  1  0  0  0  0
  5  8  1  0  0  0  0
  8  9  1  0  0  0  0
  8 10  1  0  0  0  0
  8 11  1  0  0  0  0
 11 12  1  0  0  0  0
 11 13  1  0  0  0  0
 11 14  1  0  0  0  0
 14 15  1  0  0  0  0
 14 16  1  0  0  0  0
 14 17  1  0  0  0  0
 17 18  1  0  0  0  0
 17 19  1  0  0  0  0
 17 20  1  0  0  0  0
M  END
> <VConfSearch Rank>
580

> <Conf_Id>
33

> <Delta U+W>
0.703

> <U+W>
-11.075

> <U>
47.080

> <W>
-58.154

> <W(PB)>
-60.053

> <W(SA)>
1.899

> <Valence>
1.943

> <Coulomb>
44.572

> <VdW>
0.565

> <VdW6>
-4.575

> <VdW12>
5.139

> <Bond>
0.158

> <Angle>
0.700

> <Pdih>
1.085

> <Idih>
0.000

> <Tether>
0.000

$$$$
VeraChem MOL file


 20 19  0  0  0  0  0  0  0  0999 V2000     
   19.6127   17.6208   20.2043 N   0  3  0  0  0  0  0  0  0  0  0  0
   19.0445   16.9434   19.6850 H   0  0  0  0  0  0  0  0  0  0  0  0
   20.0403   18.2435   19.5118 H   0  0  0  0  0  0  0  0  0  0  0  0
   20.3715   17.0952   20.6482 H   0  0  0  0  0  0  0  0  0  0  0  0
   18.7867   18.3871   21.2195 C   0  0  0  0  0  0  0  0  0  0  0  0
   18.3424   17.6658   21.9106 H   0  0  0  0  0  0  0  0  0  0  0  0
   17.9761   18.8833   20.6788 H   0  0  0  0  0  0  0  0  0  0  0  0
   19.5886   19.4384   22.0118 C   0  0  0  0  0  0  0  0  0  0  0  0
   20.0479   20.1511   21.3141 H   0  0  0  0  0  0  0  0  0  0  0  0
   18.8821   20.0107   22.6256 H   0  0  0  0  0  0  0  0  0  0  0  0
   20.6751   18.8049   22.9169 C   0  0  0  0  0  0  0  0  0  0  0  0
   21.3580   18.2038   22.3022 H   0  0  0  0  0  0  0  0  0  0  0  0
   20.2057   18.1102   23.6271 H   0  0  0  0  0  0  0  0  0  0  0  0
   21.5156   19.8479   23.6933 C   0  0  0  0  0  0  0  0  0  0  0  0
   22.3291   19.3257   24.2162 H   0  0  0  0  0  0  0  0  0  0  0  0
   21.9984   20.5372   22.9864 H   0  0  0  0  0  0  0  0  0  0  0  0
   20.6967   20.6532   24.7280 C   0  0  0  0  0  0  0  0  0  0  0  0
   20.1782   19.9852   25.4280 H   0  0  0  0  0  0  0  0  0  0  0  0
   21.3556   21.3066   25.3144 H   0  0  0  0  0  0  0  0  0  0  0  0
   19.9482   21.2916   24.2428 H   0  0  0  0  0  0  0  0  0  0  0  0
  1  2  1  0  0  0  0
  1  3  1  0  0  0  0
  1  4  1  0  0  0  0
  1  5  1  0  0  0  0
  5  6  1  0  0  0  0
  5  7  1  0  0  0  0
  5  8  1  0  0  0  0
  8  9  1  0  0  0  0
  8 10  1  0  0  0  0
  8 11  1  0  0  0  0
 11 12  1  0  0  0  0
 11 13  1  0  0  0  0
 11 14  1  0  0  0  0
 14 15  1  0  0  0  0
 14 16  1  0  0  0  0
 14 17  1  0  0  0  0
 17 18  1  0  0  0  0
 17 19  1  0  0  0  0
 17 20  1  0  0  0  0
M  END
> <VConfSearch Rank>
581

> <Conf_Id>
24

> <Delta U+W>
0.847

> <U+W>
-10.931

> <U>
47.080

> <W>
-58.011

> <W(PB)>
-59.914

> <W(SA)>
1.903

> <Valence>
1.943

> <Coulomb>
44.572

> <VdW>
0.565

> <VdW6>
-4.575

> <VdW12>
5.140

> <Bond>
0.158

> <Angle>
0.700

> <Pdih>
1.085

> <Idih>
0.000

> <Tether>
0.000

$$$$
VeraChem MOL file


 20 19  0  0  0  0  0  0  0  0999 V2000     
   22.2432   17.7166   21.5613 N   0  3  0  0  0  0  0  0  0  0  0  0
   22.2582   16.7059   21.3887 H   0  0  0  0  0  0  0  0  0  0  0  0
   22.1973   18.1740   20.6454 H   0  0  0  0  0  0  0  0  0  0  0  0
   23.1486   17.9606   21.9748 H   0  0  0  0  0  0  0  0  0  0  0  0
   21.0864   18.1184   22.4539 C   0  0  0  0  0  0  0  0  0  0  0  0
   21.1824   17.5740   23.3972 H   0  0  0  0  0  0  0  0  0  0  0  0
   20.1606   17.8017   21.9666 H   0  0  0  0  0  0  0  0  0  0  0  0
   21.0346   19.6324   22.7327 C   0  0  0  0  0  0  0  0  0  0  0  0
   21.9850   19.9471   23.1838 H   0  0  0  0  0  0  0  0  0  0  0  0
   20.9475   20.1803   21.7858 H   0  0  0  0  0  0  0  0  0  0  0  0
   19.8760   20.0277   23.6822 C   0  0  0  0  0  0  0  0  0  0  0  0
   19.9052   21.1137   23.8468 H   0  0  0  0  0  0  0  0  0  0  0  0
   20.0485   19.5686   24.6655 H   0  0  0  0  0  0  0  0  0  0  0  0
   18.4627   19.6281   23.1862 C   0  0  0  0  0  0  0  0  0  0  0  0
   18.3800   18.5349   23.1164 H   0  0  0  0  0  0  0  0  0  0  0  0
   17.7262   19.9381   23.9406 H   0  0  0  0  0  0  0  0  0  0  0  0
   18.0844   20.2656   21.8299 C   0  0  0  0  0  0  0  0  0  0  0  0
   17.0448   20.0277   21.5700 H   0  0  0  0  0  0  0  0  0  0  0  0
   18.1791   21.3586   21.8672 H   0  0  0  0  0  0  0  0  0  0  0  0
   18.7208   19.8924   21.0179 H   0  0  0  0  0  0  0  0  0  0  0  0
  1  2  1  0  0  0  0
  1  3  1  0  0  0  0
  1  4  1  0  0  0  0
  1  5  1  0  0  0  0
  5  6  1  0  0  0  0
  5  7  1  0  0  0  0
  5  8  1  0  0  0  0
  8  9  1  0  0  0  0
  8 10  1  0  0  0  0
  8 11  1  0  0  0  0
 11 12  1  0  0  0  0
 11 13  1  0  0  0  0
 11 14  1  0  0  0  0
 14 15  1  0  0  0  0
 14 16  1  0  0  0  0
 14 17  1  0  0  0  0
 17 18  1  0  0  0  0
 17 19  1  0  0  0  0
 17 20  1  0  0  0  0
M  END
> <VConfSearch Rank>
582

> <Conf_Id>
64

> <Delta U+W>
0.707

> <U+W>
-11.070

> <U>
47.077

> <W>
-58.148

> <W(PB)>
-60.054

> <W(SA)>
1.906

> <Valence>
2.039

> <Coulomb>
44.655

> <VdW>
0.383

> <VdW6>
-4.912

> <VdW12>
5.295

> <Bond>
0.159

> <Angle>
0.856

> <Pdih>
1.024

> <Idih>
0.000

> <Tether>
0.000

$$$$
VeraChem MOL file


 20 19  0  0  0  0  0  0  0  0999 V2000     
   18.7477   21.2487   21.6847 N   0  3  0  0  0  0  0  0  0  0  0  0
   19.0121   21.6170   20.7656 H   0  0  0  0  0  0  0  0  0  0  0  0
   17.9097   20.6745   21.5494 H   0  0  0  0  0  0  0  0  0  0  0  0
   18.4686   22.0520   22.2575 H   0  0  0  0  0  0  0  0  0  0  0  0
   19.8746   20.4642   22.3258 C   0  0  0  0  0  0  0  0  0  0  0  0
   19.5340   20.1301   23.3093 H   0  0  0  0  0  0  0  0  0  0  0  0
   20.7209   21.1419   22.4665 H   0  0  0  0  0  0  0  0  0  0  0  0
   20.3179   19.2487   21.4898 C   0  0  0  0  0  0  0  0  0  0  0  0
   19.4667   18.5723   21.3401 H   0  0  0  0  0  0  0  0  0  0  0  0
   20.6184   19.5907   20.4905 H   0  0  0  0  0  0  0  0  0  0  0  0
   21.4999   18.4793   22.1307 C   0  0  0  0  0  0  0  0  0  0  0  0
   22.3805   19.1361   22.1569 H   0  0  0  0  0  0  0  0  0  0  0  0
   21.7712   17.6367   21.4798 H   0  0  0  0  0  0  0  0  0  0  0  0
   21.2312   17.9482   23.5621 C   0  0  0  0  0  0  0  0  0  0  0  0
   22.1364   17.4396   23.9225 H   0  0  0  0  0  0  0  0  0  0  0  0
   21.0618   18.7858   24.2522 H   0  0  0  0  0  0  0  0  0  0  0  0
   20.0428   16.9629   23.6389 C   0  0  0  0  0  0  0  0  0  0  0  0
   20.1783   16.1256   22.9421 H   0  0  0  0  0  0  0  0  0  0  0  0
   19.9536   16.5463   24.6505 H   0  0  0  0  0  0  0  0  0  0  0  0
   19.0930   17.4581   23.4015 H   0  0  0  0  0  0  0  0  0  0  0  0
  1  2  1  0  0  0  0
  1  3  1  0  0  0  0
  1  4  1  0  0  0  0
  1  5  1  0  0  0  0
  5  6  1  0  0  0  0
  5  7  1  0  0  0  0
  5  8  1  0  0  0  0
  8  9  1  0  0  0  0
  8 10  1  0  0  0  0
  8 11  1  0  0  0  0
 11 12  1  0  0  0  0
 11 13  1  0  0  0  0
 11 14  1  0  0  0  0
 14 15  1  0  0  0  0
 14 16  1  0  0  0  0
 14 17  1  0  0  0  0
 17 18  1  0  0  0  0
 17 19  1  0  0  0  0
 17 20  1  0  0  0  0
M  END
> <VConfSearch Rank>
583

> <Conf_Id>
22

> <Delta U+W>
0.731

> <U+W>
-11.047

> <U>
47.078

> <W>
-58.125

> <W(PB)>
-60.031

> <W(SA)>
1.906

> <Valence>
2.039

> <Coulomb>
44.655

> <VdW>
0.383

> <VdW6>
-4.913

> <VdW12>
5.296

> <Bond>
0.159

> <Angle>
0.856

> <Pdih>
1.024

> <Idih>
0.000

> <Tether>
0.000

$$$$
VeraChem MOL file


 20 19  0  0  0  0  0  0  0  0999 V2000     
   18.8929   21.6163   22.1684 N   0  3  0  0  0  0  0  0  0  0  0  0
   18.2774   21.4231   21.3721 H   0  0  0  0  0  0  0  0  0  0  0  0
   18.2915   21.8611   22.9613 H   0  0  0  0  0  0  0  0  0  0  0  0
   19.4298   22.4574   21.9322 H   0  0  0  0  0  0  0  0  0  0  0  0
   19.7964   20.4413   22.4843 C   0  0  0  0  0  0  0  0  0  0  0  0
   20.4406   20.7251   23.3208 H   0  0  0  0  0  0  0  0  0  0  0  0
   20.4233   20.2603   21.6083 H   0  0  0  0  0  0  0  0  0  0  0  0
   19.0200   19.1603   22.8380 C   0  0  0  0  0  0  0  0  0  0  0  0
   18.3076   19.3898   23.6415 H   0  0  0  0  0  0  0  0  0  0  0  0
   18.4209   18.8455   21.9733 H   0  0  0  0  0  0  0  0  0  0  0  0
   19.9209   17.9875   23.3015 C   0  0  0  0  0  0  0  0  0  0  0  0
   19.2596   17.1666   23.6119 H   0  0  0  0  0  0  0  0  0  0  0  0
   20.4815   18.2734   24.2022 H   0  0  0  0  0  0  0  0  0  0  0  0
   20.8884   17.4402   22.2200 C   0  0  0  0  0  0  0  0  0  0  0  0
   21.0800   16.3793   22.4340 H   0  0  0  0  0  0  0  0  0  0  0  0
   20.4093   17.4664   21.2313 H   0  0  0  0  0  0  0  0  0  0  0  0
   22.2533   18.1667   22.1742 C   0  0  0  0  0  0  0  0  0  0  0  0
   22.1562   19.2157   21.8757 H   0  0  0  0  0  0  0  0  0  0  0  0
   22.7490   18.1355   23.1532 H   0  0  0  0  0  0  0  0  0  0  0  0
   22.9198   17.6811   21.4497 H   0  0  0  0  0  0  0  0  0  0  0  0
  1  2  1  0  0  0  0
  1  3  1  0  0  0  0
  1  4  1  0  0  0  0
  1  5  1  0  0  0  0
  5  6  1  0  0  0  0
  5  7  1  0  0  0  0
  5  8  1  0  0  0  0
  8  9  1  0  0  0  0
  8 10  1  0  0  0  0
  8 11  1  0  0  0  0
 11 12  1  0  0  0  0
 11 13  1  0  0  0  0
 11 14  1  0  0  0  0
 14 15  1  0  0  0  0
 14 16  1  0  0  0  0
 14 17  1  0  0  0  0
 17 18  1  0  0  0  0
 17 19  1  0  0  0  0
 17 20  1  0  0  0  0
M  END
> <VConfSearch Rank>
584

> <Conf_Id>
61

> <Delta U+W>
2.669

> <U+W>
-9.108

> <U>
48.916

> <W>
-58.025

> <W(PB)>
-59.935

> <W(SA)>
1.911

> <Valence>
3.785

> <Coulomb>
44.716

> <VdW>
0.415

> <VdW6>
-4.836

> <VdW12>
5.251

> <Bond>
0.175

> <Angle>
1.195

> <Pdih>
2.415

> <Idih>
0.000

> <Tether>
0.000

$$$$
VeraChem MOL file


 20 19  0  0  0  0  0  0  0  0999 V2000     
   18.7116   20.2116   23.7977 N   0  3  0  0  0  0  0  0  0  0  0  0
   18.6540   20.8936   24.5614 H   0  0  0  0  0  0  0  0  0  0  0  0
   17.7583   19.8760   23.6275 H   0  0  0  0  0  0  0  0  0  0  0  0
   19.2542   19.4166   24.1451 H   0  0  0  0  0  0  0  0  0  0  0  0
   19.3264   20.8160   22.5499 C   0  0  0  0  0  0  0  0  0  0  0  0
   20.3152   21.2079   22.8030 H   0  0  0  0  0  0  0  0  0  0  0  0
   18.6932   21.6589   22.2597 H   0  0  0  0  0  0  0  0  0  0  0  0
   19.4384   19.8408   21.3592 C   0  0  0  0  0  0  0  0  0  0  0  0
   18.5201   19.2449   21.2728 H   0  0  0  0  0  0  0  0  0  0  0  0
   19.4950   20.4405   20.4410 H   0  0  0  0  0  0  0  0  0  0  0  0
   20.6816   18.9152   21.3985 C   0  0  0  0  0  0  0  0  0  0  0  0
   21.5934   19.5279   21.4259 H   0  0  0  0  0  0  0  0  0  0  0  0
   20.7195   18.3537   20.4547 H   0  0  0  0  0  0  0  0  0  0  0  0
   20.6981   17.9131   22.5765 C   0  0  0  0  0  0  0  0  0  0  0  0
   20.8127   18.4507   23.5261 H   0  0  0  0  0  0  0  0  0  0  0  0
   19.7429   17.3712   22.6198 H   0  0  0  0  0  0  0  0  0  0  0  0
   21.8542   16.8987   22.4437 C   0  0  0  0  0  0  0  0  0  0  0  0
   21.8577   16.2014   23.2916 H   0  0  0  0  0  0  0  0  0  0  0  0
   21.7585   16.3079   21.5234 H   0  0  0  0  0  0  0  0  0  0  0  0
   22.8263   17.4085   22.4230 H   0  0  0  0  0  0  0  0  0  0  0  0
  1  2  1  0  0  0  0
  1  3  1  0  0  0  0
  1  4  1  0  0  0  0
  1  5  1  0  0  0  0
  5  6  1  0  0  0  0
  5  7  1  0  0  0  0
  5  8  1  0  0  0  0
  8  9  1  0  0  0  0
  8 10  1  0  0  0  0
  8 11  1  0  0  0  0
 11 12  1  0  0  0  0
 11 13  1  0  0  0  0
 11 14  1  0  0  0  0
 14 15  1  0  0  0  0
 14 16  1  0  0  0  0
 14 17  1  0  0  0  0
 17 18  1  0  0  0  0
 17 19  1  0  0  0  0
 17 20  1  0  0  0  0
M  END
> <VConfSearch Rank>
585

> <Conf_Id>
69

> <Delta U+W>
2.811

> <U+W>
-8.967

> <U>
49.216

> <W>
-58.183

> <W(PB)>
-60.064

> <W(SA)>
1.881

> <Valence>
2.929

> <Coulomb>
46.006

> <VdW>
0.281

> <VdW6>
-4.909

> <VdW12>
5.190

> <Bond>
0.156

> <Angle>
0.974

> <Pdih>
1.799

> <Idih>
0.000

> <Tether>
0.000

$$$$
VeraChem MOL file


 20 19  0  0  0  0  0  0  0  0999 V2000     
   21.1718   18.1406   20.6875 N   0  3  0  0  0  0  0  0  0  0  0  0
   21.5571   18.9736   21.1400 H   0  0  0  0  0  0  0  0  0  0  0  0
   21.6776   17.3317   21.0618 H   0  0  0  0  0  0  0  0  0  0  0  0
   21.4073   18.2028   19.6914 H   0  0  0  0  0  0  0  0  0  0  0  0
   19.6756   18.0181   20.9045 C   0  0  0  0  0  0  0  0  0  0  0  0
   19.3512   17.1151   20.3802 H   0  0  0  0  0  0  0  0  0  0  0  0
   19.1841   18.8753   20.4365 H   0  0  0  0  0  0  0  0  0  0  0  0
   19.2536   17.9162   22.3853 C   0  0  0  0  0  0  0  0  0  0  0  0
   18.2663   17.4365   22.4185 H   0  0  0  0  0  0  0  0  0  0  0  0
   19.9330   17.2432   22.9250 H   0  0  0  0  0  0  0  0  0  0  0  0
   19.1445   19.2772   23.1199 C   0  0  0  0  0  0  0  0  0  0  0  0
   18.7288   19.0931   24.1202 H   0  0  0  0  0  0  0  0  0  0  0  0
   18.4174   19.9165   22.6002 H   0  0  0  0  0  0  0  0  0  0  0  0
   20.4846   20.0353   23.2680 C   0  0  0  0  0  0  0  0  0  0  0  0
   21.2480   19.3663   23.6893 H   0  0  0  0  0  0  0  0  0  0  0  0
   20.8428   20.3617   22.2836 H   0  0  0  0  0  0  0  0  0  0  0  0
   20.3382   21.2766   24.1739 C   0  0  0  0  0  0  0  0  0  0  0  0
   20.0185   20.9930   25.1851 H   0  0  0  0  0  0  0  0  0  0  0  0
   21.2946   21.8083   24.2608 H   0  0  0  0  0  0  0  0  0  0  0  0
   19.5989   21.9782   23.7659 H   0  0  0  0  0  0  0  0  0  0  0  0
  1  2  1  0  0  0  0
  1  3  1  0  0  0  0
  1  4  1  0  0  0  0
  1  5  1  0  0  0  0
  5  6  1  0  0  0  0
  5  7  1  0  0  0  0
  5  8  1  0  0  0  0
  8  9  1  0  0  0  0
  8 10  1  0  0  0  0
  8 11  1  0  0  0  0
 11 12  1  0  0  0  0
 11 13  1  0  0  0  0
 11 14  1  0  0  0  0
 14 15  1  0  0  0  0
 14 16  1  0  0  0  0
 14 17  1  0  0  0  0
 17 18  1  0  0  0  0
 17 19  1  0  0  0  0
 17 20  1  0  0  0  0
M  END
> <VConfSearch Rank>
586

> <Conf_Id>
26

> <Delta U+W>
2.809

> <U+W>
-8.969

> <U>
49.216

> <W>
-58.185

> <W(PB)>
-60.088

> <W(SA)>
1.903

> <Valence>
2.929

> <Coulomb>
46.006

> <VdW>
0.281

> <VdW6>
-4.909

> <VdW12>
5.190

> <Bond>
0.156

> <Angle>
0.974

> <Pdih>
1.799

> <Idih>
0.000

> <Tether>
0.000

$$$$
VeraChem MOL file


 20 19  0  0  0  0  0  0  0  0999 V2000     
   22.1229   18.7085   21.1719 N   0  3  0  0  0  0  0  0  0  0  0  0
   22.3857   18.6569   22.1604 H   0  0  0  0  0  0  0  0  0  0  0  0
   22.2197   17.7653   20.7832 H   0  0  0  0  0  0  0  0  0  0  0  0
   22.8212   19.2967   20.7053 H   0  0  0  0  0  0  0  0  0  0  0  0
   20.7183   19.2507   20.9924 C   0  0  0  0  0  0  0  0  0  0  0  0
   20.5178   19.3073   19.9190 H   0  0  0  0  0  0  0  0  0  0  0  0
   20.6918   20.2662   21.3961 H   0  0  0  0  0  0  0  0  0  0  0  0
   19.6314   18.3928   21.6714 C   0  0  0  0  0  0  0  0  0  0  0  0
   18.6467   18.8119   21.4280 H   0  0  0  0  0  0  0  0  0  0  0  0
   19.6442   17.3854   21.2349 H   0  0  0  0  0  0  0  0  0  0  0  0
   19.7848   18.2839   23.2114 C   0  0  0  0  0  0  0  0  0  0  0  0
   20.6959   17.7174   23.4467 H   0  0  0  0  0  0  0  0  0  0  0  0
   18.9529   17.6858   23.6080 H   0  0  0  0  0  0  0  0  0  0  0  0
   19.8309   19.6416   23.9580 C   0  0  0  0  0  0  0  0  0  0  0  0
   19.9625   19.4471   25.0316 H   0  0  0  0  0  0  0  0  0  0  0  0
   20.7125   20.2177   23.6458 H   0  0  0  0  0  0  0  0  0  0  0  0
   18.5571   20.4941   23.7592 C   0  0  0  0  0  0  0  0  0  0  0  0
   17.6583   19.9343   24.0488 H   0  0  0  0  0  0  0  0  0  0  0  0
   18.6009   21.4007   24.3763 H   0  0  0  0  0  0  0  0  0  0  0  0
   18.4434   20.8109   22.7151 H   0  0  0  0  0  0  0  0  0  0  0  0
  1  2  1  0  0  0  0
  1  3  1  0  0  0  0
  1  4  1  0  0  0  0
  1  5  1  0  0  0  0
  5  6  1  0  0  0  0
  5  7  1  0  0  0  0
  5  8  1  0  0  0  0
  8  9  1  0  0  0  0
  8 10  1  0  0  0  0
  8 11  1  0  0  0  0
 11 12  1  0  0  0  0
 11 13  1  0  0  0  0
 11 14  1  0  0  0  0
 14 15  1  0  0  0  0
 14 16  1  0  0  0  0
 14 17  1  0  0  0  0
 17 18  1  0  0  0  0
 17 19  1  0  0  0  0
 17 20  1  0  0  0  0
M  END
> <VConfSearch Rank>
587

> <Conf_Id>
2

> <Delta U+W>
0.994

> <U+W>
-10.784

> <U>
47.562

> <W>
-58.346

> <W(PB)>
-60.221

> <W(SA)>
1.875

> <Valence>
2.149

> <Coulomb>
45.034

> <VdW>
0.378

> <VdW6>
-5.599

> <VdW12>
5.977

> <Bond>
0.185

> <Angle>
0.935

> <Pdih>
1.028

> <Idih>
0.000

> <Tether>
0.000

$$$$
VeraChem MOL file


 20 19  0  0  0  0  0  0  0  0999 V2000     
   20.4558   19.5752   20.1113 N   0  3  0  0  0  0  0  0  0  0  0  0
   21.2062   19.0831   19.6165 H   0  0  0  0  0  0  0  0  0  0  0  0
   19.6682   18.9253   20.1900 H   0  0  0  0  0  0  0  0  0  0  0  0
   20.1521   20.3438   19.5044 H   0  0  0  0  0  0  0  0  0  0  0  0
   20.9090   20.0746   21.4694 C   0  0  0  0  0  0  0  0  0  0  0  0
   20.0770   20.6158   21.9276 H   0  0  0  0  0  0  0  0  0  0  0  0
   21.7262   20.7829   21.3080 H   0  0  0  0  0  0  0  0  0  0  0  0
   21.3834   18.9529   22.4154 C   0  0  0  0  0  0  0  0  0  0  0  0
   22.2402   18.4382   21.9610 H   0  0  0  0  0  0  0  0  0  0  0  0
   21.7628   19.4067   23.3399 H   0  0  0  0  0  0  0  0  0  0  0  0
   20.2858   17.9116   22.7589 C   0  0  0  0  0  0  0  0  0  0  0  0
   20.7036   17.1756   23.4596 H   0  0  0  0  0  0  0  0  0  0  0  0
   20.0259   17.3456   21.8543 H   0  0  0  0  0  0  0  0  0  0  0  0
   18.9907   18.5083   23.3670 C   0  0  0  0  0  0  0  0  0  0  0  0
   18.5031   19.1756   22.6435 H   0  0  0  0  0  0  0  0  0  0  0  0
   18.2798   17.6903   23.5496 H   0  0  0  0  0  0  0  0  0  0  0  0
   19.2287   19.2660   24.6930 C   0  0  0  0  0  0  0  0  0  0  0  0
   19.8435   20.1617   24.5403 H   0  0  0  0  0  0  0  0  0  0  0  0
   18.2742   19.5909   25.1269 H   0  0  0  0  0  0  0  0  0  0  0  0
   19.7310   18.6251   25.4292 H   0  0  0  0  0  0  0  0  0  0  0  0
  1  2  1  0  0  0  0
  1  3  1  0  0  0  0
  1  4  1  0  0  0  0
  1  5  1  0  0  0  0
  5  6  1  0  0  0  0
  5  7  1  0  0  0  0
  5  8  1  0  0  0  0
  8  9  1  0  0  0  0
  8 10  1  0  0  0  0
  8 11  1  0  0  0  0
 11 12  1  0  0  0  0
 11 13  1  0  0  0  0
 11 14  1  0  0  0  0
 14 15  1  0  0  0  0
 14 16  1  0  0  0  0
 14 17  1  0  0  0  0
 17 18  1  0  0  0  0
 17 19  1  0  0  0  0
 17 20  1  0  0  0  0
M  END
> <VConfSearch Rank>
588

> <Conf_Id>
1

> <Delta U+W>
1.032

> <U+W>
-10.746

> <U>
47.562

> <W>
-58.308

> <W(PB)>
-60.184

> <W(SA)>
1.877

> <Valence>
2.149

> <Coulomb>
45.035

> <VdW>
0.378

> <VdW6>
-5.599

> <VdW12>
5.978

> <Bond>
0.185

> <Angle>
0.935

> <Pdih>
1.028

> <Idih>
0.000

> <Tether>
0.000

$$$$
VeraChem MOL file


 20 19  0  0  0  0  0  0  0  0999 V2000     
   18.8300   17.4996   23.4125 N   0  3  0  0  0  0  0  0  0  0  0  0
   18.7345   16.5972   22.9363 H   0  0  0  0  0  0  0  0  0  0  0  0
   19.7173   17.4802   23.9232 H   0  0  0  0  0  0  0  0  0  0  0  0
   18.0825   17.5476   24.1127 H   0  0  0  0  0  0  0  0  0  0  0  0
   18.7651   18.6609   22.4393 C   0  0  0  0  0  0  0  0  0  0  0  0
   18.8414   19.5854   23.0137 H   0  0  0  0  0  0  0  0  0  0  0  0
   17.7791   18.6390   21.9673 H   0  0  0  0  0  0  0  0  0  0  0  0
   19.8515   18.6177   21.3436 C   0  0  0  0  0  0  0  0  0  0  0  0
   19.7466   17.6709   20.7974 H   0  0  0  0  0  0  0  0  0  0  0  0
   19.6589   19.4109   20.6092 H   0  0  0  0  0  0  0  0  0  0  0  0
   21.3080   18.7361   21.8677 C   0  0  0  0  0  0  0  0  0  0  0  0
   21.9731   18.2868   21.1173 H   0  0  0  0  0  0  0  0  0  0  0  0
   21.4433   18.1339   22.7754 H   0  0  0  0  0  0  0  0  0  0  0  0
   21.8012   20.1851   22.1150 C   0  0  0  0  0  0  0  0  0  0  0  0
   22.8643   20.1445   22.3912 H   0  0  0  0  0  0  0  0  0  0  0  0
   21.7538   20.7577   21.1782 H   0  0  0  0  0  0  0  0  0  0  0  0
   21.0361   20.9451   23.2209 C   0  0  0  0  0  0  0  0  0  0  0  0
   20.9658   20.3487   24.1396 H   0  0  0  0  0  0  0  0  0  0  0  0
   21.5529   21.8815   23.4681 H   0  0  0  0  0  0  0  0  0  0  0  0
   20.0238   21.2118   22.8952 H   0  0  0  0  0  0  0  0  0  0  0  0
  1  2  1  0  0  0  0
  1  3  1  0  0  0  0
  1  4  1  0  0  0  0
  1  5  1  0  0  0  0
  5  6  1  0  0  0  0
  5  7  1  0  0  0  0
  5  8  1  0  0  0  0
  8  9  1  0  0  0  0
  8 10  1  0  0  0  0
  8 11  1  0  0  0  0
 11 12  1  0  0  0  0
 11 13  1  0  0  0  0
 11 14  1  0  0  0  0
 14 15  1  0  0  0  0
 14 16  1  0  0  0  0
 14 17  1  0  0  0  0
 17 18  1  0  0  0  0
 17 19  1  0  0  0  0
 17 20  1  0  0  0  0
M  END
> <VConfSearch Rank>
589

> <Conf_Id>
80

> <Delta U+W>
2.920

> <U+W>
-8.857

> <U>
49.434

> <W>
-58.292

> <W(PB)>
-60.170

> <W(SA)>
1.879

> <Valence>
3.798

> <Coulomb>
45.253

> <VdW>
0.384

> <VdW6>
-5.595

> <VdW12>
5.979

> <Bond>
0.198

> <Angle>
1.368

> <Pdih>
2.231

> <Idih>
0.000

> <Tether>
0.000

$$$$
VeraChem MOL file


 20 19  0  0  0  0  0  0  0  0999 V2000     
   21.4898   20.9097   21.5585 N   0  3  0  0  0  0  0  0  0  0  0  0
   21.6918   21.7390   22.1255 H   0  0  0  0  0  0  0  0  0  0  0  0
   22.1117   20.9467   20.7441 H   0  0  0  0  0  0  0  0  0  0  0  0
   20.5325   21.0081   21.2083 H   0  0  0  0  0  0  0  0  0  0  0  0
   21.6720   19.6279   22.3482 C   0  0  0  0  0  0  0  0  0  0  0  0
   22.7217   19.5744   22.6495 H   0  0  0  0  0  0  0  0  0  0  0  0
   21.4721   18.7896   21.6791 H   0  0  0  0  0  0  0  0  0  0  0  0
   20.7799   19.5374   23.6046 C   0  0  0  0  0  0  0  0  0  0  0  0
   21.0618   18.6506   24.1876 H   0  0  0  0  0  0  0  0  0  0  0  0
   21.0044   20.4011   24.2444 H   0  0  0  0  0  0  0  0  0  0  0  0
   19.2544   19.5083   23.3176 C   0  0  0  0  0  0  0  0  0  0  0  0
   18.9944   20.2285   22.5312 H   0  0  0  0  0  0  0  0  0  0  0  0
   18.7356   19.8610   24.2198 H   0  0  0  0  0  0  0  0  0  0  0  0
   18.6783   18.1118   22.9686 C   0  0  0  0  0  0  0  0  0  0  0  0
   18.8574   17.4181   23.8018 H   0  0  0  0  0  0  0  0  0  0  0  0
   17.5866   18.2022   22.8797 H   0  0  0  0  0  0  0  0  0  0  0  0
   19.2273   17.4977   21.6619 C   0  0  0  0  0  0  0  0  0  0  0  0
   20.2693   17.1771   21.7781 H   0  0  0  0  0  0  0  0  0  0  0  0
   18.6454   16.6096   21.3835 H   0  0  0  0  0  0  0  0  0  0  0  0
   19.1681   18.2112   20.8299 H   0  0  0  0  0  0  0  0  0  0  0  0
  1  2  1  0  0  0  0
  1  3  1  0  0  0  0
  1  4  1  0  0  0  0
  1  5  1  0  0  0  0
  5  6  1  0  0  0  0
  5  7  1  0  0  0  0
  5  8  1  0  0  0  0
  8  9  1  0  0  0  0
  8 10  1  0  0  0  0
  8 11  1  0  0  0  0
 11 12  1  0  0  0  0
 11 13  1  0  0  0  0
 11 14  1  0  0  0  0
 14 15  1  0  0  0  0
 14 16  1  0  0  0  0
 14 17  1  0  0  0  0
 17 18  1  0  0  0  0
 17 19  1  0  0  0  0
 17 20  1  0  0  0  0
M  END
> <VConfSearch Rank>
590

> <Conf_Id>
65

> <Delta U+W>
2.949

> <U+W>
-8.829

> <U>
49.435

> <W>
-58.263

> <W(PB)>
-60.125

> <W(SA)>
1.862

> <Valence>
3.797

> <Coulomb>
45.253

> <VdW>
0.384

> <VdW6>
-5.596

> <VdW12>
5.980

> <Bond>
0.198

> <Angle>
1.369

> <Pdih>
2.230

> <Idih>
0.000

> <Tether>
0.000

$$$$
VeraChem MOL file


 20 19  0  0  0  0  0  0  0  0999 V2000     
   18.7395   20.3363   23.3429 N   0  3  0  0  0  0  0  0  0  0  0  0
   17.8484   20.7818   23.0997 H   0  0  0  0  0  0  0  0  0  0  0  0
   18.6224   19.3268   23.2124 H   0  0  0  0  0  0  0  0  0  0  0  0
   18.8908   20.4990   24.3434 H   0  0  0  0  0  0  0  0  0  0  0  0
   19.8848   20.8729   22.5063 C   0  0  0  0  0  0  0  0  0  0  0  0
   19.9464   21.9471   22.7007 H   0  0  0  0  0  0  0  0  0  0  0  0
   19.6428   20.7329   21.4494 H   0  0  0  0  0  0  0  0  0  0  0  0
   21.2484   20.2253   22.8219 C   0  0  0  0  0  0  0  0  0  0  0  0
   22.0319   20.9265   22.5054 H   0  0  0  0  0  0  0  0  0  0  0  0
   21.3662   20.1171   23.9083 H   0  0  0  0  0  0  0  0  0  0  0  0
   21.5150   18.8682   22.1167 C   0  0  0  0  0  0  0  0  0  0  0  0
   22.5330   18.5534   22.3851 H   0  0  0  0  0  0  0  0  0  0  0  0
   21.5296   19.0090   21.0270 H   0  0  0  0  0  0  0  0  0  0  0  0
   20.5434   17.7202   22.4918 C   0  0  0  0  0  0  0  0  0  0  0  0
   21.1066   16.7764   22.5080 H   0  0  0  0  0  0  0  0  0  0  0  0
   20.1651   17.8554   23.5140 H   0  0  0  0  0  0  0  0  0  0  0  0
   19.3781   17.5578   21.4871 C   0  0  0  0  0  0  0  0  0  0  0  0
   18.8045   18.4817   21.3570 H   0  0  0  0  0  0  0  0  0  0  0  0
   19.7580   17.2651   20.4995 H   0  0  0  0  0  0  0  0  0  0  0  0
   18.6864   16.7731   21.8204 H   0  0  0  0  0  0  0  0  0  0  0  0
  1  2  1  0  0  0  0
  1  3  1  0  0  0  0
  1  4  1  0  0  0  0
  1  5  1  0  0  0  0
  5  6  1  0  0  0  0
  5  7  1  0  0  0  0
  5  8  1  0  0  0  0
  8  9  1  0  0  0  0
  8 10  1  0  0  0  0
  8 11  1  0  0  0  0
 11 12  1  0  0  0  0
 11 13  1  0  0  0  0
 11 14  1  0  0  0  0
 14 15  1  0  0  0  0
 14 16  1  0  0  0  0
 14 17  1  0  0  0  0
 17 18  1  0  0  0  0
 17 19  1  0  0  0  0
 17 20  1  0  0  0  0
M  END
> <VConfSearch Rank>
591

> <Conf_Id>
77

> <Delta U+W>
5.366

> <U+W>
-6.412

> <U>
51.542

> <W>
-57.954

> <W(PB)>
-59.811

> <W(SA)>
1.857

> <Valence>
5.347

> <Coulomb>
45.870

> <VdW>
0.325

> <VdW6>
-6.161

> <VdW12>
6.486

> <Bond>
0.201

> <Angle>
1.484

> <Pdih>
3.662

> <Idih>
0.000

> <Tether>
0.000

$$$$
VeraChem MOL file


 20 19  0  0  0  0  0  0  0  0999 V2000     
   21.0153   18.4204   24.1471 N   0  3  0  0  0  0  0  0  0  0  0  0
   22.0375   18.4824   24.1886 H   0  0  0  0  0  0  0  0  0  0  0  0
   20.6565   19.3730   24.0304 H   0  0  0  0  0  0  0  0  0  0  0  0
   20.6996   18.0844   25.0631 H   0  0  0  0  0  0  0  0  0  0  0  0
   20.5519   17.5134   23.0237 C   0  0  0  0  0  0  0  0  0  0  0  0
   19.4626   17.4312   23.0659 H   0  0  0  0  0  0  0  0  0  0  0  0
   20.9744   16.5237   23.2173 H   0  0  0  0  0  0  0  0  0  0  0  0
   20.9880   17.9811   21.6203 C   0  0  0  0  0  0  0  0  0  0  0  0
   22.0293   18.3284   21.6511 H   0  0  0  0  0  0  0  0  0  0  0  0
   20.9858   17.1033   20.9605 H   0  0  0  0  0  0  0  0  0  0  0  0
   20.0820   19.0624   20.9724 C   0  0  0  0  0  0  0  0  0  0  0  0
   19.0704   18.6611   20.8200 H   0  0  0  0  0  0  0  0  0  0  0  0
   20.4743   19.2585   19.9649 H   0  0  0  0  0  0  0  0  0  0  0  0
   20.0099   20.4127   21.7301 C   0  0  0  0  0  0  0  0  0  0  0  0
   20.9425   20.5948   22.2808 H   0  0  0  0  0  0  0  0  0  0  0  0
   19.9394   21.2245   20.9924 H   0  0  0  0  0  0  0  0  0  0  0  0
   18.7837   20.5187   22.6677 C   0  0  0  0  0  0  0  0  0  0  0  0
   18.8025   21.4649   23.2239 H   0  0  0  0  0  0  0  0  0  0  0  0
   17.8516   20.4952   22.0880 H   0  0  0  0  0  0  0  0  0  0  0  0
   18.7388   19.7000   23.3938 H   0  0  0  0  0  0  0  0  0  0  0  0
  1  2  1  0  0  0  0
  1  3  1  0  0  0  0
  1  4  1  0  0  0  0
  1  5  1  0  0  0  0
  5  6  1  0  0  0  0
  5  7  1  0  0  0  0
  5  8  1  0  0  0  0
  8  9  1  0  0  0  0
  8 10  1  0  0  0  0
  8 11  1  0  0  0  0
 11 12  1  0  0  0  0
 11 13  1  0  0  0  0
 11 14  1  0  0  0  0
 14 15  1  0  0  0  0
 14 16  1  0  0  0  0
 14 17  1  0  0  0  0
 17 18  1  0  0  0  0
 17 19  1  0  0  0  0
 17 20  1  0  0  0  0
M  END
> <VConfSearch Rank>
592

> <Conf_Id>
67

> <Delta U+W>
5.353

> <U+W>
-6.425

> <U>
51.541

> <W>
-57.966

> <W(PB)>
-59.821

> <W(SA)>
1.855

> <Valence>
5.347

> <Coulomb>
45.870

> <VdW>
0.325

> <VdW6>
-6.161

> <VdW12>
6.486

> <Bond>
0.201

> <Angle>
1.485

> <Pdih>
3.662

> <Idih>
0.000

> <Tether>
0.000

$$$$
VeraChem MOL file


 20 19  0  0  0  0  0  0  0  0999 V2000     
   20.1030   18.4959   25.6172 N   0  3  0  0  0  0  0  0  0  0  0  0
   21.1155   18.4449   25.7677 H   0  0  0  0  0  0  0  0  0  0  0  0
   19.6976   18.9109   26.4628 H   0  0  0  0  0  0  0  0  0  0  0  0
   19.7575   17.5324   25.5643 H   0  0  0  0  0  0  0  0  0  0  0  0
   19.7539   19.2921   24.3760 C   0  0  0  0  0  0  0  0  0  0  0  0
   20.1241   20.3117   24.5139 H   0  0  0  0  0  0  0  0  0  0  0  0
   18.6642   19.3306   24.2952 H   0  0  0  0  0  0  0  0  0  0  0  0
   20.3480   18.6954   23.0875 C   0  0  0  0  0  0  0  0  0  0  0  0
   21.4412   18.6438   23.1795 H   0  0  0  0  0  0  0  0  0  0  0  0
   19.9863   17.6661   22.9615 H   0  0  0  0  0  0  0  0  0  0  0  0
   19.9692   19.5355   21.8476 C   0  0  0  0  0  0  0  0  0  0  0  0
   20.3280   20.5659   21.9794 H   0  0  0  0  0  0  0  0  0  0  0  0
   18.8749   19.5894   21.7616 H   0  0  0  0  0  0  0  0  0  0  0  0
   20.5605   18.9457   20.5477 C   0  0  0  0  0  0  0  0  0  0  0  0
   21.6553   18.8920   20.6286 H   0  0  0  0  0  0  0  0  0  0  0  0
   20.2024   17.9156   20.4108 H   0  0  0  0  0  0  0  0  0  0  0  0
   20.1795   19.7883   19.3116 C   0  0  0  0  0  0  0  0  0  0  0  0
   20.5543   20.8161   19.4034 H   0  0  0  0  0  0  0  0  0  0  0  0
   20.6083   19.3540   18.3992 H   0  0  0  0  0  0  0  0  0  0  0  0
   19.0900   19.8320   19.1838 H   0  0  0  0  0  0  0  0  0  0  0  0
  1  2  1  0  0  0  0
  1  3  1  0  0  0  0
  1  4  1  0  0  0  0
  1  5  1  0  0  0  0
  5  6  1  0  0  0  0
  5  7  1  0  0  0  0
  5  8  1  0  0  0  0
  8  9  1  0  0  0  0
  8 10  1  0  0  0  0
  8 11  1  0  0  0  0
 11 12  1  0  0  0  0
 11 13  1  0  0  0  0
 11 14  1  0  0  0  0
 14 15  1  0  0  0  0
 14 16  1  0  0  0  0
 14 17  1  0  0  0  0
 17 18  1  0  0  0  0
 17 19  1  0  0  0  0
 17 20  1  0  0  0  0
M  END
> <VConfSearch Rank>
593

> <Conf_Id>
72

> <Delta U+W>
0.000

> <U+W>
-11.778

> <U>
45.772

> <W>
-57.550

> <W(PB)>
-59.511

> <W(SA)>
1.961

> <Valence>
1.299

> <Coulomb>
44.177

> <VdW>
0.297

> <VdW6>
-3.490

> <VdW12>
3.786

> <Bond>
0.096

> <Angle>
0.381

> <Pdih>
0.822

> <Idih>
0.000

> <Tether>
0.000

$$$$
VeraChem MOL file


 20 19  0  0  0  0  0  0  0  0999 V2000     
   17.3612   20.1173   23.2825 N   0  3  0  0  0  0  0  0  0  0  0  0
   17.6179   20.0972   24.2745 H   0  0  0  0  0  0  0  0  0  0  0  0
   17.4527   21.0881   22.9672 H   0  0  0  0  0  0  0  0  0  0  0  0
   16.3651   19.8799   23.2284 H   0  0  0  0  0  0  0  0  0  0  0  0
   18.2110   19.1714   22.4580 C   0  0  0  0  0  0  0  0  0  0  0  0
   17.8637   19.2216   21.4224 H   0  0  0  0  0  0  0  0  0  0  0  0
   18.0421   18.1564   22.8278 H   0  0  0  0  0  0  0  0  0  0  0  0
   19.7135   19.5004   22.5167 C   0  0  0  0  0  0  0  0  0  0  0  0
   19.8767   20.5258   22.1595 H   0  0  0  0  0  0  0  0  0  0  0  0
   20.0469   19.4645   23.5615 H   0  0  0  0  0  0  0  0  0  0  0  0
   20.5409   18.5128   21.6604 C   0  0  0  0  0  0  0  0  0  0  0  0
   20.1425   18.5068   20.6362 H   0  0  0  0  0  0  0  0  0  0  0  0
   20.4140   17.4918   22.0466 H   0  0  0  0  0  0  0  0  0  0  0  0
   22.0484   18.8599   21.6003 C   0  0  0  0  0  0  0  0  0  0  0  0
   22.5396   18.1768   20.8931 H   0  0  0  0  0  0  0  0  0  0  0  0
   22.1811   19.8716   21.1920 H   0  0  0  0  0  0  0  0  0  0  0  0
   22.7586   18.7545   22.9692 C   0  0  0  0  0  0  0  0  0  0  0  0
   22.6172   17.7602   23.4124 H   0  0  0  0  0  0  0  0  0  0  0  0
   23.8378   18.9204   22.8558 H   0  0  0  0  0  0  0  0  0  0  0  0
   22.3833   19.5035   23.6774 H   0  0  0  0  0  0  0  0  0  0  0  0
  1  2  1  0  0  0  0
  1  3  1  0  0  0  0
  1  4  1  0  0  0  0
  1  5  1  0  0  0  0
  5  6  1  0  0  0  0
  5  7  1  0  0  0  0
  5  8  1  0  0  0  0
  8  9  1  0  0  0  0
  8 10  1  0  0  0  0
  8 11  1  0  0  0  0
 11 12  1  0  0  0  0
 11 13  1  0  0  0  0
 11 14  1  0  0  0  0
 14 15  1  0  0  0  0
 14 16  1  0  0  0  0
 14 17  1  0  0  0  0
 17 18  1  0  0  0  0
 17 19  1  0  0  0  0
 17 20  1  0  0  0  0
M  END
> <VConfSearch Rank>
594

> <Conf_Id>
42

> <Delta U+W>
0.508

> <U+W>
-11.270

> <U>
46.486

> <W>
-57.756

> <W(PB)>
-59.705

> <W(SA)>
1.949

> <Valence>
1.806

> <Coulomb>
44.248

> <VdW>
0.433

> <VdW6>
-4.089

> <VdW12>
4.522

> <Bond>
0.131

> <Angle>
0.628

> <Pdih>
1.047

> <Idih>
0.000

> <Tether>
0.000

$$$$
VeraChem MOL file


 20 19  0  0  0  0  0  0  0  0999 V2000     
   18.8330   17.8833   24.9101 N   0  3  0  0  0  0  0  0  0  0  0  0
   18.3070   18.7160   25.1937 H   0  0  0  0  0  0  0  0  0  0  0  0
   18.2093   17.3175   24.3259 H   0  0  0  0  0  0  0  0  0  0  0  0
   19.0145   17.3421   25.7619 H   0  0  0  0  0  0  0  0  0  0  0  0
   20.1156   18.2424   24.1872 C   0  0  0  0  0  0  0  0  0  0  0  0
   20.6367   17.3129   23.9424 H   0  0  0  0  0  0  0  0  0  0  0  0
   20.7418   18.8159   24.8760 H   0  0  0  0  0  0  0  0  0  0  0  0
   19.8787   19.0566   22.9026 C   0  0  0  0  0  0  0  0  0  0  0  0
   19.2351   18.4794   22.2268 H   0  0  0  0  0  0  0  0  0  0  0  0
   19.3412   19.9815   23.1508 H   0  0  0  0  0  0  0  0  0  0  0  0
   21.2129   19.4022   22.1999 C   0  0  0  0  0  0  0  0  0  0  0  0
   21.7293   18.4765   21.9102 H   0  0  0  0  0  0  0  0  0  0  0  0
   21.8726   19.9122   22.9158 H   0  0  0  0  0  0  0  0  0  0  0  0
   21.0400   20.3092   20.9573 C   0  0  0  0  0  0  0  0  0  0  0  0
   20.5452   21.2468   21.2471 H   0  0  0  0  0  0  0  0  0  0  0  0
   22.0351   20.5900   20.5845 H   0  0  0  0  0  0  0  0  0  0  0  0
   20.2501   19.6374   19.8109 C   0  0  0  0  0  0  0  0  0  0  0  0
   19.2084   19.4461   20.0964 H   0  0  0  0  0  0  0  0  0  0  0  0
   20.2349   20.2845   18.9243 H   0  0  0  0  0  0  0  0  0  0  0  0
   20.7087   18.6830   19.5213 H   0  0  0  0  0  0  0  0  0  0  0  0
  1  2  1  0  0  0  0
  1  3  1  0  0  0  0
  1  4  1  0  0  0  0
  1  5  1  0  0  0  0
  5  6  1  0  0  0  0
  5  7  1  0  0  0  0
  5  8  1  0  0  0  0
  8  9  1  0  0  0  0
  8 10  1  0  0  0  0
  8 11  1  0  0  0  0
 11 12  1  0  0  0  0
 11 13  1  0  0  0  0
 11 14  1  0  0  0  0
 14 15  1  0  0  0  0
 14 16  1  0  0  0  0
 14 17  1  0  0  0  0
 17 18  1  0  0  0  0
 17 19  1  0  0  0  0
 17 20  1  0  0  0  0
M  END
> <VConfSearch Rank>
595

> <Conf_Id>
41

> <Delta U+W>
0.515

> <U+W>
-11.263

> <U>
46.486

> <W>
-57.749

> <W(PB)>
-59.685

> <W(SA)>
1.936

> <Valence>
1.806

> <Coulomb>
44.248

> <VdW>
0.433

> <VdW6>
-4.089

> <VdW12>
4.522

> <Bond>
0.131

> <Angle>
0.628

> <Pdih>
1.047

> <Idih>
0.000

> <Tether>
0.000

$$$$
VeraChem MOL file


 20 19  0  0  0  0  0  0  0  0999 V2000     
   18.8614   19.3621   24.9015 N   0  3  0  0  0  0  0  0  0  0  0  0
   18.6102   19.0007   25.8277 H   0  0  0  0  0  0  0  0  0  0  0  0
   19.6876   19.9542   25.0267 H   0  0  0  0  0  0  0  0  0  0  0  0
   18.0943   19.9719   24.6018 H   0  0  0  0  0  0  0  0  0  0  0  0
   19.1133   18.2424   23.9100 C   0  0  0  0  0  0  0  0  0  0  0  0
   18.2072   17.6321   23.8637 H   0  0  0  0  0  0  0  0  0  0  0  0
   19.9230   17.6193   24.2993 H   0  0  0  0  0  0  0  0  0  0  0  0
   19.4707   18.7316   22.4927 C   0  0  0  0  0  0  0  0  0  0  0  0
   19.5151   17.8557   21.8336 H   0  0  0  0  0  0  0  0  0  0  0  0
   18.6637   19.3712   22.1115 H   0  0  0  0  0  0  0  0  0  0  0  0
   20.8199   19.4922   22.4446 C   0  0  0  0  0  0  0  0  0  0  0  0
   21.6259   18.8386   22.8059 H   0  0  0  0  0  0  0  0  0  0  0  0
   20.7827   20.3464   23.1334 H   0  0  0  0  0  0  0  0  0  0  0  0
   21.1782   20.0235   21.0352 C   0  0  0  0  0  0  0  0  0  0  0  0
   20.3811   20.6889   20.6748 H   0  0  0  0  0  0  0  0  0  0  0  0
   22.0830   20.6425   21.1119 H   0  0  0  0  0  0  0  0  0  0  0  0
   21.4290   18.9037   19.9993 C   0  0  0  0  0  0  0  0  0  0  0  0
   20.5160   18.3319   19.7930 H   0  0  0  0  0  0  0  0  0  0  0  0
   21.7715   19.3308   19.0478 H   0  0  0  0  0  0  0  0  0  0  0  0
   22.2006   18.2062   20.3503 H   0  0  0  0  0  0  0  0  0  0  0  0
  1  2  1  0  0  0  0
  1  3  1  0  0  0  0
  1  4  1  0  0  0  0
  1  5  1  0  0  0  0
  5  6  1  0  0  0  0
  5  7  1  0  0  0  0
  5  8  1  0  0  0  0
  8  9  1  0  0  0  0
  8 10  1  0  0  0  0
  8 11  1  0  0  0  0
 11 12  1  0  0  0  0
 11 13  1  0  0  0  0
 11 14  1  0  0  0  0
 14 15  1  0  0  0  0
 14 16  1  0  0  0  0
 14 17  1  0  0  0  0
 17 18  1  0  0  0  0
 17 19  1  0  0  0  0
 17 20  1  0  0  0  0
M  END
> <VConfSearch Rank>
596

> <Conf_Id>
33

> <Delta U+W>
0.703

> <U+W>
-11.075

> <U>
47.080

> <W>
-58.154

> <W(PB)>
-60.053

> <W(SA)>
1.899

> <Valence>
1.943

> <Coulomb>
44.572

> <VdW>
0.565

> <VdW6>
-4.575

> <VdW12>
5.139

> <Bond>
0.158

> <Angle>
0.700

> <Pdih>
1.085

> <Idih>
0.000

> <Tether>
0.000

$$$$
VeraChem MOL file


 20 19  0  0  0  0  0  0  0  0999 V2000     
   22.2634   20.7355   23.2270 N   0  3  0  0  0  0  0  0  0  0  0  0
   22.6582   21.5071   23.7749 H   0  0  0  0  0  0  0  0  0  0  0  0
   23.0200   20.0615   23.0739 H   0  0  0  0  0  0  0  0  0  0  0  0
   22.0099   21.1191   22.3118 H   0  0  0  0  0  0  0  0  0  0  0  0
   21.0745   20.1017   23.9233 C   0  0  0  0  0  0  0  0  0  0  0  0
   20.3176   20.8757   24.0763 H   0  0  0  0  0  0  0  0  0  0  0  0
   21.4115   19.7574   24.9049 H   0  0  0  0  0  0  0  0  0  0  0  0
   20.4574   18.9179   23.1528 C   0  0  0  0  0  0  0  0  0  0  0  0
   21.2241   18.1499   22.9855 H   0  0  0  0  0  0  0  0  0  0  0  0
   19.6902   18.4619   23.7910 H   0  0  0  0  0  0  0  0  0  0  0  0
   19.8290   19.3451   21.8024 C   0  0  0  0  0  0  0  0  0  0  0  0
   20.5923   19.8335   21.1823 H   0  0  0  0  0  0  0  0  0  0  0  0
   19.0474   20.0968   21.9796 H   0  0  0  0  0  0  0  0  0  0  0  0
   19.2361   18.1632   20.9969 C   0  0  0  0  0  0  0  0  0  0  0  0
   18.9176   18.5330   20.0122 H   0  0  0  0  0  0  0  0  0  0  0  0
   20.0176   17.4147   20.8052 H   0  0  0  0  0  0  0  0  0  0  0  0
   18.0288   17.4895   21.6886 C   0  0  0  0  0  0  0  0  0  0  0  0
   17.2457   18.2232   21.9197 H   0  0  0  0  0  0  0  0  0  0  0  0
   17.5893   16.7253   21.0346 H   0  0  0  0  0  0  0  0  0  0  0  0
   18.3226   16.9938   22.6219 H   0  0  0  0  0  0  0  0  0  0  0  0
  1  2  1  0  0  0  0
  1  3  1  0  0  0  0
  1  4  1  0  0  0  0
  1  5  1  0  0  0  0
  5  6  1  0  0  0  0
  5  7  1  0  0  0  0
  5  8  1  0  0  0  0
  8  9  1  0  0  0  0
  8 10  1  0  0  0  0
  8 11  1  0  0  0  0
 11 12  1  0  0  0  0
 11 13  1  0  0  0  0
 11 14  1  0  0  0  0
 14 15  1  0  0  0  0
 14 16  1  0  0  0  0
 14 17  1  0  0  0  0
 17 18  1  0  0  0  0
 17 19  1  0  0  0  0
 17 20  1  0  0  0  0
M  END
> <VConfSearch Rank>
597

> <Conf_Id>
24

> <Delta U+W>
0.847

> <U+W>
-10.931

> <U>
47.080

> <W>
-58.011

> <W(PB)>
-59.914

> <W(SA)>
1.903

> <Valence>
1.943

> <Coulomb>
44.572

> <VdW>
0.565

> <VdW6>
-4.575

> <VdW12>
5.140

> <Bond>
0.158

> <Angle>
0.700

> <Pdih>
1.085

> <Idih>
0.000

> <Tether>
0.000

$$$$
VeraChem MOL file


 20 19  0  0  0  0  0  0  0  0999 V2000     
   20.8889   16.7155   23.3594 N   0  3  0  0  0  0  0  0  0  0  0  0
   20.3060   16.0268   23.8467 H   0  0  0  0  0  0  0  0  0  0  0  0
   20.9982   16.3839   22.3959 H   0  0  0  0  0  0  0  0  0  0  0  0
   21.8154   16.6824   23.7963 H   0  0  0  0  0  0  0  0  0  0  0  0
   20.2857   18.1045   23.4157 C   0  0  0  0  0  0  0  0  0  0  0  0
   20.1712   18.3810   24.4673 H   0  0  0  0  0  0  0  0  0  0  0  0
   19.2922   18.0577   22.9621 H   0  0  0  0  0  0  0  0  0  0  0  0
   21.1375   19.1640   22.6915 C   0  0  0  0  0  0  0  0  0  0  0  0
   22.1454   19.1735   23.1273 H   0  0  0  0  0  0  0  0  0  0  0  0
   21.2608   18.8827   21.6379 H   0  0  0  0  0  0  0  0  0  0  0  0
   20.5363   20.5882   22.7929 C   0  0  0  0  0  0  0  0  0  0  0  0
   21.1969   21.2920   22.2680 H   0  0  0  0  0  0  0  0  0  0  0  0
   20.5373   20.9014   23.8461 H   0  0  0  0  0  0  0  0  0  0  0  0
   19.0979   20.7289   22.2322 C   0  0  0  0  0  0  0  0  0  0  0  0
   18.4012   20.1106   22.8146 H   0  0  0  0  0  0  0  0  0  0  0  0
   18.7675   21.7677   22.3722 H   0  0  0  0  0  0  0  0  0  0  0  0
   18.9845   20.3683   20.7334 C   0  0  0  0  0  0  0  0  0  0  0  0
   17.9712   20.5731   20.3643 H   0  0  0  0  0  0  0  0  0  0  0  0
   19.6868   20.9589   20.1310 H   0  0  0  0  0  0  0  0  0  0  0  0
   19.1904   19.3050   20.5583 H   0  0  0  0  0  0  0  0  0  0  0  0
  1  2  1  0  0  0  0
  1  3  1  0  0  0  0
  1  4  1  0  0  0  0
  1  5  1  0  0  0  0
  5  6  1  0  0  0  0
  5  7  1  0  0  0  0
  5  8  1  0  0  0  0
  8  9  1  0  0  0  0
  8 10  1  0  0  0  0
  8 11  1  0  0  0  0
 11 12  1  0  0  0  0
 11 13  1  0  0  0  0
 11 14  1  0  0  0  0
 14 15  1  0  0  0  0
 14 16  1  0  0  0  0
 14 17  1  0  0  0  0
 17 18  1  0  0  0  0
 17 19  1  0  0  0  0
 17 20  1  0  0  0  0
M  END
> <VConfSearch Rank>
598

> <Conf_Id>
64

> <Delta U+W>
0.707

> <U+W>
-11.070

> <U>
47.077

> <W>
-58.148

> <W(PB)>
-60.054

> <W(SA)>
1.906

> <Valence>
2.039

> <Coulomb>
44.655

> <VdW>
0.383

> <VdW6>
-4.912

> <VdW12>
5.295

> <Bond>
0.159

> <Angle>
0.856

> <Pdih>
1.024

> <Idih>
0.000

> <Tether>
0.000

$$$$
VeraChem MOL file


 20 19  0  0  0  0  0  0  0  0999 V2000     
   22.6710   17.9181   22.1336 N   0  3  0  0  0  0  0  0  0  0  0  0
   23.3632   18.5336   21.6951 H   0  0  0  0  0  0  0  0  0  0  0  0
   22.8521   17.9313   23.1422 H   0  0  0  0  0  0  0  0  0  0  0  0
   22.8710   16.9665   21.8079 H   0  0  0  0  0  0  0  0  0  0  0  0
   21.2522   18.3385   21.8072 C   0  0  0  0  0  0  0  0  0  0  0  0
   20.5731   17.6240   22.2796 H   0  0  0  0  0  0  0  0  0  0  0  0
   21.1210   18.2732   20.7237 H   0  0  0  0  0  0  0  0  0  0  0  0
   20.9187   19.7647   22.2841 C   0  0  0  0  0  0  0  0  0  0  0  0
   21.0589   19.8339   23.3704 H   0  0  0  0  0  0  0  0  0  0  0  0
   21.6323   20.4690   21.8364 H   0  0  0  0  0  0  0  0  0  0  0  0
   19.4814   20.2024   21.9064 C   0  0  0  0  0  0  0  0  0  0  0  0
   19.3986   20.2477   20.8116 H   0  0  0  0  0  0  0  0  0  0  0  0
   19.3157   21.2279   22.2644 H   0  0  0  0  0  0  0  0  0  0  0  0
   18.3569   19.2864   22.4539 C   0  0  0  0  0  0  0  0  0  0  0  0
   17.3887   19.6779   22.1118 H   0  0  0  0  0  0  0  0  0  0  0  0
   18.4437   18.2797   22.0228 H   0  0  0  0  0  0  0  0  0  0  0  0
   18.3383   19.1914   23.9965 C   0  0  0  0  0  0  0  0  0  0  0  0
   18.2728   20.1876   24.4528 H   0  0  0  0  0  0  0  0  0  0  0  0
   17.4713   18.6096   24.3354 H   0  0  0  0  0  0  0  0  0  0  0  0
   19.2384   18.6954   24.3805 H   0  0  0  0  0  0  0  0  0  0  0  0
  1  2  1  0  0  0  0
  1  3  1  0  0  0  0
  1  4  1  0  0  0  0
  1  5  1  0  0  0  0
  5  6  1  0  0  0  0
  5  7  1  0  0  0  0
  5  8  1  0  0  0  0
  8  9  1  0  0  0  0
  8 10  1  0  0  0  0
  8 11  1  0  0  0  0
 11 12  1  0  0  0  0
 11 13  1  0  0  0  0
 11 14  1  0  0  0  0
 14 15  1  0  0  0  0
 14 16  1  0  0  0  0
 14 17  1  0  0  0  0
 17 18  1  0  0  0  0
 17 19  1  0  0  0  0
 17 20  1  0  0  0  0
M  END
> <VConfSearch Rank>
599

> <Conf_Id>
22

> <Delta U+W>
0.731

> <U+W>
-11.047

> <U>
47.078

> <W>
-58.125

> <W(PB)>
-60.031

> <W(SA)>
1.906

> <Valence>
2.039

> <Coulomb>
44.655

> <VdW>
0.383

> <VdW6>
-4.913

> <VdW12>
5.296

> <Bond>
0.159

> <Angle>
0.856

> <Pdih>
1.024

> <Idih>
0.000

> <Tether>
0.000

$$$$
VeraChem MOL file


 20 19  0  0  0  0  0  0  0  0999 V2000     
   18.6218   16.9386   22.6500 N   0  3  0  0  0  0  0  0  0  0  0  0
   17.9682   17.0760   21.8726 H   0  0  0  0  0  0  0  0  0  0  0  0
   19.1478   16.0813   22.4532 H   0  0  0  0  0  0  0  0  0  0  0  0
   18.0561   16.7548   23.4853 H   0  0  0  0  0  0  0  0  0  0  0  0
   19.5354   18.1327   22.8397 C   0  0  0  0  0  0  0  0  0  0  0  0
   20.1830   17.9305   23.6971 H   0  0  0  0  0  0  0  0  0  0  0  0
   18.9083   18.9961   23.0735 H   0  0  0  0  0  0  0  0  0  0  0  0
   20.3950   18.4386   21.6003 C   0  0  0  0  0  0  0  0  0  0  0  0
   20.9285   17.5249   21.3064 H   0  0  0  0  0  0  0  0  0  0  0  0
   19.7414   18.7005   20.7576 H   0  0  0  0  0  0  0  0  0  0  0  0
   21.4363   19.5652   21.8204 C   0  0  0  0  0  0  0  0  0  0  0  0
   22.0469   19.6324   20.9092 H   0  0  0  0  0  0  0  0  0  0  0  0
   22.1322   19.2862   22.6237 H   0  0  0  0  0  0  0  0  0  0  0  0
   20.8334   20.9670   22.0972 C   0  0  0  0  0  0  0  0  0  0  0  0
   21.5449   21.7248   21.7401 H   0  0  0  0  0  0  0  0  0  0  0  0
   19.9177   21.1115   21.5070 H   0  0  0  0  0  0  0  0  0  0  0  0
   20.5570   21.2464   23.5933 C   0  0  0  0  0  0  0  0  0  0  0  0
   19.7852   20.5871   24.0038 H   0  0  0  0  0  0  0  0  0  0  0  0
   21.4679   21.1190   24.1925 H   0  0  0  0  0  0  0  0  0  0  0  0
   20.2116   22.2792   23.7310 H   0  0  0  0  0  0  0  0  0  0  0  0
  1  2  1  0  0  0  0
  1  3  1  0  0  0  0
  1  4  1  0  0  0  0
  1  5  1  0  0  0  0
  5  6  1  0  0  0  0
  5  7  1  0  0  0  0
  5  8  1  0  0  0  0
  8  9  1  0  0  0  0
  8 10  1  0  0  0  0
  8 11  1  0  0  0  0
 11 12  1  0  0  0  0
 11 13  1  0  0  0  0
 11 14  1  0  0  0  0
 14 15  1  0  0  0  0
 14 16  1  0  0  0  0
 14 17  1  0  0  0  0
 17 18  1  0  0  0  0
 17 19  1  0  0  0  0
 17 20  1  0  0  0  0
M  END
> <VConfSearch Rank>
600

> <Conf_Id>
61

> <Delta U+W>
2.669

> <U+W>
-9.108

> <U>
48.916

> <W>
-58.025

> <W(PB)>
-59.935

> <W(SA)>
1.911

> <Valence>
3.785

> <Coulomb>
44.716

> <VdW>
0.415

> <VdW6>
-4.836

> <VdW12>
5.251

> <Bond>
0.175

> <Angle>
1.195

> <Pdih>
2.415

> <Idih>
0.000

> <Tether>
0.000

$$$$
VeraChem MOL file


 20 19  0  0  0  0  0  0  0  0999 V2000     
   18.7971   18.4731   24.1984 N   0  3  0  0  0  0  0  0  0  0  0  0
   18.2119   17.7341   24.6022 H   0  0  0  0  0  0  0  0  0  0  0  0
   18.6868   19.2983   24.7960 H   0  0  0  0  0  0  0  0  0  0  0  0
   18.3991   18.7062   23.2850 H   0  0  0  0  0  0  0  0  0  0  0  0
   20.2484   18.0453   24.0922 C   0  0  0  0  0  0  0  0  0  0  0  0
   20.2998   17.1316   23.4941 H   0  0  0  0  0  0  0  0  0  0  0  0
   20.5841   17.8055   25.1048 H   0  0  0  0  0  0  0  0  0  0  0  0
   21.1854   19.1161   23.4947 C   0  0  0  0  0  0  0  0  0  0  0  0
   20.9437   20.1029   23.9116 H   0  0  0  0  0  0  0  0  0  0  0  0
   22.2065   18.8902   23.8296 H   0  0  0  0  0  0  0  0  0  0  0  0
   21.1957   19.1717   21.9453 C   0  0  0  0  0  0  0  0  0  0  0  0
   21.4960   18.1930   21.5459 H   0  0  0  0  0  0  0  0  0  0  0  0
   21.9756   19.8806   21.6341 H   0  0  0  0  0  0  0  0  0  0  0  0
   19.8515   19.5978   21.3098 C   0  0  0  0  0  0  0  0  0  0  0  0
   19.0923   18.8247   21.4821 H   0  0  0  0  0  0  0  0  0  0  0  0
   19.4911   20.5223   21.7822 H   0  0  0  0  0  0  0  0  0  0  0  0
   19.9879   19.8221   19.7886 C   0  0  0  0  0  0  0  0  0  0  0  0
   19.0241   20.1142   19.3517 H   0  0  0  0  0  0  0  0  0  0  0  0
   20.7111   20.6183   19.5692 H   0  0  0  0  0  0  0  0  0  0  0  0
   20.3232   18.9070   19.2830 H   0  0  0  0  0  0  0  0  0  0  0  0
  1  2  1  0  0  0  0
  1  3  1  0  0  0  0
  1  4  1  0  0  0  0
  1  5  1  0  0  0  0
  5  6  1  0  0  0  0
  5  7  1  0  0  0  0
  5  8  1  0  0  0  0
  8  9  1  0  0  0  0
  8 10  1  0  0  0  0
  8 11  1  0  0  0  0
 11 12  1  0  0  0  0
 11 13  1  0  0  0  0
 11 14  1  0  0  0  0
 14 15  1  0  0  0  0
 14 16  1  0  0  0  0
 14 17  1  0  0  0  0
 17 18  1  0  0  0  0
 17 19  1  0  0  0  0
 17 20  1  0  0  0  0
M  END
> <VConfSearch Rank>
601

> <Conf_Id>
69

> <Delta U+W>
2.811

> <U+W>
-8.967

> <U>
49.216

> <W>
-58.183

> <W(PB)>
-60.064

> <W(SA)>
1.881

> <Valence>
2.929

> <Coulomb>
46.006

> <VdW>
0.281

> <VdW6>
-4.909

> <VdW12>
5.190

> <Bond>
0.156

> <Angle>
0.974

> <Pdih>
1.799

> <Idih>
0.000

> <Tether>
0.000

$$$$
VeraChem MOL file


 20 19  0  0  0  0  0  0  0  0999 V2000     
   18.9829   19.1725   24.4407 N   0  3  0  0  0  0  0  0  0  0  0  0
   19.2214   20.0452   23.9628 H   0  0  0  0  0  0  0  0  0  0  0  0
   17.9895   18.9926   24.2644 H   0  0  0  0  0  0  0  0  0  0  0  0
   19.0792   19.3442   25.4471 H   0  0  0  0  0  0  0  0  0  0  0  0
   19.8537   18.0184   23.9820 C   0  0  0  0  0  0  0  0  0  0  0  0
   19.5397   17.1381   24.5494 H   0  0  0  0  0  0  0  0  0  0  0  0
   20.8916   18.2381   24.2463 H   0  0  0  0  0  0  0  0  0  0  0  0
   19.7521   17.7047   22.4744 C   0  0  0  0  0  0  0  0  0  0  0  0
   20.0662   16.6626   22.3287 H   0  0  0  0  0  0  0  0  0  0  0  0
   18.7040   17.7509   22.1500 H   0  0  0  0  0  0  0  0  0  0  0  0
   20.6381   18.5982   21.5687 C   0  0  0  0  0  0  0  0  0  0  0  0
   20.5752   18.2125   20.5417 H   0  0  0  0  0  0  0  0  0  0  0  0
   21.6900   18.4952   21.8694 H   0  0  0  0  0  0  0  0  0  0  0  0
   20.2471   20.0947   21.5646 C   0  0  0  0  0  0  0  0  0  0  0  0
   19.1705   20.1993   21.3700 H   0  0  0  0  0  0  0  0  0  0  0  0
   20.4465   20.5382   22.5482 H   0  0  0  0  0  0  0  0  0  0  0  0
   21.0369   20.8856   20.4998 C   0  0  0  0  0  0  0  0  0  0  0  0
   20.8365   20.5006   19.4915 H   0  0  0  0  0  0  0  0  0  0  0  0
   20.7551   21.9464   20.5164 H   0  0  0  0  0  0  0  0  0  0  0  0
   22.1178   20.8215   20.6816 H   0  0  0  0  0  0  0  0  0  0  0  0
  1  2  1  0  0  0  0
  1  3  1  0  0  0  0
  1  4  1  0  0  0  0
  1  5  1  0  0  0  0
  5  6  1  0  0  0  0
  5  7  1  0  0  0  0
  5  8  1  0  0  0  0
  8  9  1  0  0  0  0
  8 10  1  0  0  0  0
  8 11  1  0  0  0  0
 11 12  1  0  0  0  0
 11 13  1  0  0  0  0
 11 14  1  0  0  0  0
 14 15  1  0  0  0  0
 14 16  1  0  0  0  0
 14 17  1  0  0  0  0
 17 18  1  0  0  0  0
 17 19  1  0  0  0  0
 17 20  1  0  0  0  0
M  END
> <VConfSearch Rank>
602

> <Conf_Id>
26

> <Delta U+W>
2.809

> <U+W>
-8.969

> <U>
49.216

> <W>
-58.185

> <W(PB)>
-60.088

> <W(SA)>
1.903

> <Valence>
2.929

> <Coulomb>
46.006

> <VdW>
0.281

> <VdW6>
-4.909

> <VdW12>
5.190

> <Bond>
0.156

> <Angle>
0.974

> <Pdih>
1.799

> <Idih>
0.000

> <Tether>
0.000

$$$$
VeraChem MOL file


 20 19  0  0  0  0  0  0  0  0999 V2000     
   20.9180   21.4534   22.6586 N   0  3  0  0  0  0  0  0  0  0  0  0
   20.5557   21.1803   23.5768 H   0  0  0  0  0  0  0  0  0  0  0  0
   21.9280   21.5928   22.7608 H   0  0  0  0  0  0  0  0  0  0  0  0
   20.5116   22.3677   22.4348 H   0  0  0  0  0  0  0  0  0  0  0  0
   20.5962   20.4186   21.5980 C   0  0  0  0  0  0  0  0  0  0  0  0
   20.9827   20.7879   20.6443 H   0  0  0  0  0  0  0  0  0  0  0  0
   19.5088   20.3423   21.5164 H   0  0  0  0  0  0  0  0  0  0  0  0
   21.1945   19.0271   21.8883 C   0  0  0  0  0  0  0  0  0  0  0  0
   20.9797   18.3656   21.0393 H   0  0  0  0  0  0  0  0  0  0  0  0
   22.2885   19.1091   21.9346 H   0  0  0  0  0  0  0  0  0  0  0  0
   20.6753   18.3783   23.1984 C   0  0  0  0  0  0  0  0  0  0  0  0
   21.0338   18.9595   24.0587 H   0  0  0  0  0  0  0  0  0  0  0  0
   21.1282   17.3828   23.3035 H   0  0  0  0  0  0  0  0  0  0  0  0
   19.1338   18.2435   23.2909 C   0  0  0  0  0  0  0  0  0  0  0  0
   18.8786   17.7951   24.2612 H   0  0  0  0  0  0  0  0  0  0  0  0
   18.6641   19.2364   23.2848 H   0  0  0  0  0  0  0  0  0  0  0  0
   18.5259   17.3750   22.1662 C   0  0  0  0  0  0  0  0  0  0  0  0
   18.9909   16.3810   22.1399 H   0  0  0  0  0  0  0  0  0  0  0  0
   17.4487   17.2373   22.3263 H   0  0  0  0  0  0  0  0  0  0  0  0
   18.6560   17.8418   21.1819 H   0  0  0  0  0  0  0  0  0  0  0  0
  1  2  1  0  0  0  0
  1  3  1  0  0  0  0
  1  4  1  0  0  0  0
  1  5  1  0  0  0  0
  5  6  1  0  0  0  0
  5  7  1  0  0  0  0
  5  8  1  0  0  0  0
  8  9  1  0  0  0  0
  8 10  1  0  0  0  0
  8 11  1  0  0  0  0
 11 12  1  0  0  0  0
 11 13  1  0  0  0  0
 11 14  1  0  0  0  0
 14 15  1  0  0  0  0
 14 16  1  0  0  0  0
 14 17  1  0  0  0  0
 17 18  1  0  0  0  0
 17 19  1  0  0  0  0
 17 20  1  0  0  0  0
M  END
> <VConfSearch Rank>
603

> <Conf_Id>
2

> <Delta U+W>
0.994

> <U+W>
-10.784

> <U>
47.562

> <W>
-58.346

> <W(PB)>
-60.221

> <W(SA)>
1.875

> <Valence>
2.149

> <Coulomb>
45.034

> <VdW>
0.378

> <VdW6>
-5.599

> <VdW12>
5.977

> <Bond>
0.185

> <Angle>
0.935

> <Pdih>
1.028

> <Idih>
0.000

> <Tether>
0.000

$$$$
VeraChem MOL file


 20 19  0  0  0  0  0  0  0  0999 V2000     
   22.2762   20.2108   22.8578 N   0  3  0  0  0  0  0  0  0  0  0  0
   23.0244   20.0597   22.1741 H   0  0  0  0  0  0  0  0  0  0  0  0
   21.6348   20.9012   22.4568 H   0  0  0  0  0  0  0  0  0  0  0  0
   22.7073   20.6436   23.6813 H   0  0  0  0  0  0  0  0  0  0  0  0
   21.5631   18.9193   23.2078 C   0  0  0  0  0  0  0  0  0  0  0  0
   20.8038   19.1437   23.9615 H   0  0  0  0  0  0  0  0  0  0  0  0
   22.2972   18.2446   23.6565 H   0  0  0  0  0  0  0  0  0  0  0  0
   20.9049   18.2271   21.9970 C   0  0  0  0  0  0  0  0  0  0  0  0
   21.6805   17.9757   21.2615 H   0  0  0  0  0  0  0  0  0  0  0  0
   20.4812   17.2691   22.3244 H   0  0  0  0  0  0  0  0  0  0  0  0
   19.8035   19.0751   21.3078 C   0  0  0  0  0  0  0  0  0  0  0  0
   19.3719   18.4911   20.4833 H   0  0  0  0  0  0  0  0  0  0  0  0
   20.2629   19.9557   20.8390 H   0  0  0  0  0  0  0  0  0  0  0  0
   18.6617   19.5440   22.2456 C   0  0  0  0  0  0  0  0  0  0  0  0
   19.0579   20.2100   23.0239 H   0  0  0  0  0  0  0  0  0  0  0  0
   17.9548   20.1498   21.6615 H   0  0  0  0  0  0  0  0  0  0  0  0
   17.8911   18.3772   22.9041 C   0  0  0  0  0  0  0  0  0  0  0  0
   18.5311   17.8081   23.5898 H   0  0  0  0  0  0  0  0  0  0  0  0
   17.0409   18.7572   23.4851 H   0  0  0  0  0  0  0  0  0  0  0  0
   17.4982   17.6864   22.1469 H   0  0  0  0  0  0  0  0  0  0  0  0
  1  2  1  0  0  0  0
  1  3  1  0  0  0  0
  1  4  1  0  0  0  0
  1  5  1  0  0  0  0
  5  6  1  0  0  0  0
  5  7  1  0  0  0  0
  5  8  1  0  0  0  0
  8  9  1  0  0  0  0
  8 10  1  0  0  0  0
  8 11  1  0  0  0  0
 11 12  1  0  0  0  0
 11 13  1  0  0  0  0
 11 14  1  0  0  0  0
 14 15  1  0  0  0  0
 14 16  1  0  0  0  0
 14 17  1  0  0  0  0
 17 18  1  0  0  0  0
 17 19  1  0  0  0  0
 17 20  1  0  0  0  0
M  END
> <VConfSearch Rank>
604

> <Conf_Id>
1

> <Delta U+W>
1.032

> <U+W>
-10.746

> <U>
47.562

> <W>
-58.308

> <W(PB)>
-60.184

> <W(SA)>
1.877

> <Valence>
2.149

> <Coulomb>
45.035

> <VdW>
0.378

> <VdW6>
-5.599

> <VdW12>
5.978

> <Bond>
0.185

> <Angle>
0.935

> <Pdih>
1.028

> <Idih>
0.000

> <Tether>
0.000

$$$$
VeraChem MOL file


 20 19  0  0  0  0  0  0  0  0999 V2000     
   21.4917   18.2077   20.7398 N   0  3  0  0  0  0  0  0  0  0  0  0
   22.2933   17.6111   20.9666 H   0  0  0  0  0  0  0  0  0  0  0  0
   20.6482   17.6387   20.8557 H   0  0  0  0  0  0  0  0  0  0  0  0
   21.5634   18.4371   19.7430 H   0  0  0  0  0  0  0  0  0  0  0  0
   21.4536   19.4540   21.6030 C   0  0  0  0  0  0  0  0  0  0  0  0
   20.5985   20.0546   21.2888 H   0  0  0  0  0  0  0  0  0  0  0  0
   22.3614   20.0264   21.3934 H   0  0  0  0  0  0  0  0  0  0  0  0
   21.3781   19.1621   23.1168 C   0  0  0  0  0  0  0  0  0  0  0  0
   22.2480   18.5497   23.3892 H   0  0  0  0  0  0  0  0  0  0  0  0
   21.4862   20.1019   23.6742 H   0  0  0  0  0  0  0  0  0  0  0  0
   20.0869   18.4313   23.5740 C   0  0  0  0  0  0  0  0  0  0  0  0
   20.3085   17.9163   24.5190 H   0  0  0  0  0  0  0  0  0  0  0  0
   19.8193   17.6375   22.8647 H   0  0  0  0  0  0  0  0  0  0  0  0
   18.8648   19.3521   23.8242 C   0  0  0  0  0  0  0  0  0  0  0  0
   18.0482   18.7379   24.2291 H   0  0  0  0  0  0  0  0  0  0  0  0
   19.1073   20.0858   24.6055 H   0  0  0  0  0  0  0  0  0  0  0  0
   18.3476   20.0898   22.5695 C   0  0  0  0  0  0  0  0  0  0  0  0
   18.2035   19.3972   21.7303 H   0  0  0  0  0  0  0  0  0  0  0  0
   17.3819   20.5679   22.7787 H   0  0  0  0  0  0  0  0  0  0  0  0
   19.0388   20.8818   22.2584 H   0  0  0  0  0  0  0  0  0  0  0  0
  1  2  1  0  0  0  0
  1  3  1  0  0  0  0
  1  4  1  0  0  0  0
  1  5  1  0  0  0  0
  5  6  1  0  0  0  0
  5  7  1  0  0  0  0
  5  8  1  0  0  0  0
  8  9  1  0  0  0  0
  8 10  1  0  0  0  0
  8 11  1  0  0  0  0
 11 12  1  0  0  0  0
 11 13  1  0  0  0  0
 11 14  1  0  0  0  0
 14 15  1  0  0  0  0
 14 16  1  0  0  0  0
 14 17  1  0  0  0  0
 17 18  1  0  0  0  0
 17 19  1  0  0  0  0
 17 20  1  0  0  0  0
M  END
> <VConfSearch Rank>
605

> <Conf_Id>
80

> <Delta U+W>
2.920

> <U+W>
-8.857

> <U>
49.434

> <W>
-58.292

> <W(PB)>
-60.170

> <W(SA)>
1.879

> <Valence>
3.798

> <Coulomb>
45.253

> <VdW>
0.384

> <VdW6>
-5.595

> <VdW12>
5.979

> <Bond>
0.198

> <Angle>
1.368

> <Pdih>
2.231

> <Idih>
0.000

> <Tether>
0.000

$$$$
VeraChem MOL file


 20 19  0  0  0  0  0  0  0  0999 V2000     
   17.9086   18.9769   22.0845 N   0  3  0  0  0  0  0  0  0  0  0  0
   17.5397   19.2464   21.1672 H   0  0  0  0  0  0  0  0  0  0  0  0
   17.1674   18.4533   22.5617 H   0  0  0  0  0  0  0  0  0  0  0  0
   18.0559   19.8391   22.6169 H   0  0  0  0  0  0  0  0  0  0  0  0
   19.1834   18.1644   21.9636 C   0  0  0  0  0  0  0  0  0  0  0  0
   18.9375   17.2460   21.4236 H   0  0  0  0  0  0  0  0  0  0  0  0
   19.5018   17.8868   22.9697 H   0  0  0  0  0  0  0  0  0  0  0  0
   20.3221   18.8973   21.2227 C   0  0  0  0  0  0  0  0  0  0  0  0
   21.1574   18.2029   21.0621 H   0  0  0  0  0  0  0  0  0  0  0  0
   19.9590   19.1668   20.2221 H   0  0  0  0  0  0  0  0  0  0  0  0
   20.8391   20.1785   21.9309 C   0  0  0  0  0  0  0  0  0  0  0  0
   20.0019   20.7641   22.3320 H   0  0  0  0  0  0  0  0  0  0  0  0
   21.3053   20.8189   21.1694 H   0  0  0  0  0  0  0  0  0  0  0  0
   21.8948   19.9352   23.0402 C   0  0  0  0  0  0  0  0  0  0  0  0
   22.7735   19.4330   22.6119 H   0  0  0  0  0  0  0  0  0  0  0  0
   22.2493   20.9119   23.3983 H   0  0  0  0  0  0  0  0  0  0  0  0
   21.3804   19.1261   24.2514 C   0  0  0  0  0  0  0  0  0  0  0  0
   21.2273   18.0720   23.9917 H   0  0  0  0  0  0  0  0  0  0  0  0
   22.1132   19.1543   25.0682 H   0  0  0  0  0  0  0  0  0  0  0  0
   20.4368   19.5363   24.6336 H   0  0  0  0  0  0  0  0  0  0  0  0
  1  2  1  0  0  0  0
  1  3  1  0  0  0  0
  1  4  1  0  0  0  0
  1  5  1  0  0  0  0
  5  6  1  0  0  0  0
  5  7  1  0  0  0  0
  5  8  1  0  0  0  0
  8  9  1  0  0  0  0
  8 10  1  0  0  0  0
  8 11  1  0  0  0  0
 11 12  1  0  0  0  0
 11 13  1  0  0  0  0
 11 14  1  0  0  0  0
 14 15  1  0  0  0  0
 14 16  1  0  0  0  0
 14 17  1  0  0  0  0
 17 18  1  0  0  0  0
 17 19  1  0  0  0  0
 17 20  1  0  0  0  0
M  END
> <VConfSearch Rank>
606

> <Conf_Id>
65

> <Delta U+W>
2.949

> <U+W>
-8.829

> <U>
49.435

> <W>
-58.263

> <W(PB)>
-60.125

> <W(SA)>
1.862

> <Valence>
3.797

> <Coulomb>
45.253

> <VdW>
0.384

> <VdW6>
-5.596

> <VdW12>
5.980

> <Bond>
0.198

> <Angle>
1.369

> <Pdih>
2.230

> <Idih>
0.000

> <Tether>
0.000

$$$$
VeraChem MOL file


 20 19  0  0  0  0  0  0  0  0999 V2000     
   18.2453   18.8318   22.9538 N   0  3  0  0  0  0  0  0  0  0  0  0
   17.7410   18.4322   23.7523 H   0  0  0  0  0  0  0  0  0  0  0  0
   18.7278   19.6723   23.2862 H   0  0  0  0  0  0  0  0  0  0  0  0
   17.5384   19.1340   22.2759 H   0  0  0  0  0  0  0  0  0  0  0  0
   19.2180   17.8391   22.3474 C   0  0  0  0  0  0  0  0  0  0  0  0
   18.6310   16.9778   22.0171 H   0  0  0  0  0  0  0  0  0  0  0  0
   19.9063   17.5016   23.1269 H   0  0  0  0  0  0  0  0  0  0  0  0
   20.0148   18.3944   21.1494 C   0  0  0  0  0  0  0  0  0  0  0  0
   20.3478   17.5399   20.5454 H   0  0  0  0  0  0  0  0  0  0  0  0
   19.3499   18.9782   20.4991 H   0  0  0  0  0  0  0  0  0  0  0  0
   21.2698   19.2296   21.5200 C   0  0  0  0  0  0  0  0  0  0  0  0
   21.7657   19.5112   20.5807 H   0  0  0  0  0  0  0  0  0  0  0  0
   21.9936   18.6002   22.0561 H   0  0  0  0  0  0  0  0  0  0  0  0
   20.9941   20.5258   22.3240 C   0  0  0  0  0  0  0  0  0  0  0  0
   21.7077   21.2967   22.0004 H   0  0  0  0  0  0  0  0  0  0  0  0
   19.9996   20.9242   22.0817 H   0  0  0  0  0  0  0  0  0  0  0  0
   21.1592   20.3404   23.8511 C   0  0  0  0  0  0  0  0  0  0  0  0
   20.5304   19.5354   24.2464 H   0  0  0  0  0  0  0  0  0  0  0  0
   22.2002   20.0963   24.0999 H   0  0  0  0  0  0  0  0  0  0  0  0
   20.9009   21.2652   24.3833 H   0  0  0  0  0  0  0  0  0  0  0  0
  1  2  1  0  0  0  0
  1  3  1  0  0  0  0
  1  4  1  0  0  0  0
  1  5  1  0  0  0  0
  5  6  1  0  0  0  0
  5  7  1  0  0  0  0
  5  8  1  0  0  0  0
  8  9  1  0  0  0  0
  8 10  1  0  0  0  0
  8 11  1  0  0  0  0
 11 12  1  0  0  0  0
 11 13  1  0  0  0  0
 11 14  1  0  0  0  0
 14 15  1  0  0  0  0
 14 16  1  0  0  0  0
 14 17  1  0  0  0  0
 17 18  1  0  0  0  0
 17 19  1  0  0  0  0
 17 20  1  0  0  0  0
M  END
> <VConfSearch Rank>
607

> <Conf_Id>
77

> <Delta U+W>
5.366

> <U+W>
-6.412

> <U>
51.542

> <W>
-57.954

> <W(PB)>
-59.811

> <W(SA)>
1.857

> <Valence>
5.347

> <Coulomb>
45.870

> <VdW>
0.325

> <VdW6>
-6.161

> <VdW12>
6.486

> <Bond>
0.201

> <Angle>
1.484

> <Pdih>
3.662

> <Idih>
0.000

> <Tether>
0.000

$$$$
VeraChem MOL file


 20 19  0  0  0  0  0  0  0  0999 V2000     
   21.6596   19.7895   23.5518 N   0  3  0  0  0  0  0  0  0  0  0  0
   22.0283   20.6886   23.2263 H   0  0  0  0  0  0  0  0  0  0  0  0
   20.6726   19.9317   23.7867 H   0  0  0  0  0  0  0  0  0  0  0  0
   22.1520   19.5629   24.4224 H   0  0  0  0  0  0  0  0  0  0  0  0
   21.8287   18.7015   22.5091 C   0  0  0  0  0  0  0  0  0  0  0  0
   21.4810   17.7546   22.9305 H   0  0  0  0  0  0  0  0  0  0  0  0
   22.9005   18.6118   22.3120 H   0  0  0  0  0  0  0  0  0  0  0  0
   21.0951   18.9854   21.1826 C   0  0  0  0  0  0  0  0  0  0  0  0
   21.2272   20.0390   20.9028 H   0  0  0  0  0  0  0  0  0  0  0  0
   21.5920   18.4032   20.3953 H   0  0  0  0  0  0  0  0  0  0  0  0
   19.5883   18.6124   21.1673 C   0  0  0  0  0  0  0  0  0  0  0  0
   19.4689   17.5300   21.3144 H   0  0  0  0  0  0  0  0  0  0  0  0
   19.2106   18.8139   20.1552 H   0  0  0  0  0  0  0  0  0  0  0  0
   18.6997   19.3871   22.1737 C   0  0  0  0  0  0  0  0  0  0  0  0
   19.1179   20.3840   22.3676 H   0  0  0  0  0  0  0  0  0  0  0  0
   17.7186   19.5636   21.7106 H   0  0  0  0  0  0  0  0  0  0  0  0
   18.4665   18.6179   23.4958 C   0  0  0  0  0  0  0  0  0  0  0  0
   17.8806   19.2248   24.1983 H   0  0  0  0  0  0  0  0  0  0  0  0
   17.9044   17.6933   23.3102 H   0  0  0  0  0  0  0  0  0  0  0  0
   19.4034   18.3385   23.9894 H   0  0  0  0  0  0  0  0  0  0  0  0
  1  2  1  0  0  0  0
  1  3  1  0  0  0  0
  1  4  1  0  0  0  0
  1  5  1  0  0  0  0
  5  6  1  0  0  0  0
  5  7  1  0  0  0  0
  5  8  1  0  0  0  0
  8  9  1  0  0  0  0
  8 10  1  0  0  0  0
  8 11  1  0  0  0  0
 11 12  1  0  0  0  0
 11 13  1  0  0  0  0
 11 14  1  0  0  0  0
 14 15  1  0  0  0  0
 14 16  1  0  0  0  0
 14 17  1  0  0  0  0
 17 18  1  0  0  0  0
 17 19  1  0  0  0  0
 17 20  1  0  0  0  0
M  END
> <VConfSearch Rank>
608

> <Conf_Id>
67

> <Delta U+W>
5.353

> <U+W>
-6.425

> <U>
51.541

> <W>
-57.966

> <W(PB)>
-59.821

> <W(SA)>
1.855

> <Valence>
5.347

> <Coulomb>
45.870

> <VdW>
0.325

> <VdW6>
-6.161

> <VdW12>
6.486

> <Bond>
0.201

> <Angle>
1.485

> <Pdih>
3.662

> <Idih>
0.000

> <Tether>
0.000

$$$$
VeraChem MOL file


 20 19  0  0  0  0  0  0  0  0999 V2000     
   21.3647   19.5831   25.4073 N   0  3  0  0  0  0  0  0  0  0  0  0
   22.2641   19.1128   25.2647 H   0  0  0  0  0  0  0  0  0  0  0  0
   21.5395   20.3742   26.0361 H   0  0  0  0  0  0  0  0  0  0  0  0
   20.7598   18.9291   25.9139 H   0  0  0  0  0  0  0  0  0  0  0  0
   20.7453   20.0303   24.0986 C   0  0  0  0  0  0  0  0  0  0  0  0
   21.4267   20.7452   23.6295 H   0  0  0  0  0  0  0  0  0  0  0  0
   19.8095   20.5475   24.3274 H   0  0  0  0  0  0  0  0  0  0  0  0
   20.4699   18.8657   23.1305 C   0  0  0  0  0  0  0  0  0  0  0  0
   21.4096   18.3394   22.9161 H   0  0  0  0  0  0  0  0  0  0  0  0
   19.7980   18.1424   23.6116 H   0  0  0  0  0  0  0  0  0  0  0  0
   19.8396   19.3636   21.8109 C   0  0  0  0  0  0  0  0  0  0  0  0
   20.5120   20.0910   21.3349 H   0  0  0  0  0  0  0  0  0  0  0  0
   18.9023   19.8941   22.0296 H   0  0  0  0  0  0  0  0  0  0  0  0
   19.5587   18.2025   20.8308 C   0  0  0  0  0  0  0  0  0  0  0  0
   20.4941   17.6703   20.6077 H   0  0  0  0  0  0  0  0  0  0  0  0
   18.8845   17.4736   21.3022 H   0  0  0  0  0  0  0  0  0  0  0  0
   18.9291   18.7047   19.5139 C   0  0  0  0  0  0  0  0  0  0  0  0
   19.5958   19.4103   19.0011 H   0  0  0  0  0  0  0  0  0  0  0  0
   18.7372   17.8665   18.8315 H   0  0  0  0  0  0  0  0  0  0  0  0
   17.9735   19.2118   19.7010 H   0  0  0  0  0  0  0  0  0  0  0  0
  1  2  1  0  0  0  0
  1  3  1  0  0  0  0
  1  4  1  0  0  0  0
  1  5  1  0  0  0  0
  5  6  1  0  0  0  0
  5  7  1  0  0  0  0
  5  8  1  0  0  0  0
  8  9  1  0  0  0  0
  8 10  1  0  0  0  0
  8 11  1  0  0  0  0
 11 12  1  0  0  0  0
 11 13  1  0  0  0  0
 11 14  1  0  0  0  0
 14 15  1  0  0  0  0
 14 16  1  0  0  0  0
 14 17  1  0  0  0  0
 17 18  1  0  0  0  0
 17 19  1  0  0  0  0
 17 20  1  0  0  0  0
M  END
> <VConfSearch Rank>
609

> <Conf_Id>
72

> <Delta U+W>
0.000

> <U+W>
-11.778

> <U>
45.772

> <W>
-57.550

> <W(PB)>
-59.511

> <W(SA)>
1.961

> <Valence>
1.299

> <Coulomb>
44.177

> <VdW>
0.297

> <VdW6>
-3.490

> <VdW12>
3.786

> <Bond>
0.096

> <Angle>
0.381

> <Pdih>
0.822

> <Idih>
0.000

> <Tether>
0.000

$$$$
VeraChem MOL file


 20 19  0  0  0  0  0  0  0  0999 V2000     
   20.8643   16.2742   22.4144 N   0  3  0  0  0  0  0  0  0  0  0  0
   20.1277   16.0401   23.0875 H   0  0  0  0  0  0  0  0  0  0  0  0
   20.4991   16.0595   21.4812 H   0  0  0  0  0  0  0  0  0  0  0  0
   21.6405   15.6264   22.5860 H   0  0  0  0  0  0  0  0  0  0  0  0
   21.3014   17.7204   22.5328 C   0  0  0  0  0  0  0  0  0  0  0  0
   22.1051   17.8901   21.8111 H   0  0  0  0  0  0  0  0  0  0  0  0
   21.7053   17.8699   23.5378 H   0  0  0  0  0  0  0  0  0  0  0  0
   20.1589   18.7206   22.2802 C   0  0  0  0  0  0  0  0  0  0  0  0
   19.7458   18.5564   21.2761 H   0  0  0  0  0  0  0  0  0  0  0  0
   19.3512   18.5297   22.9979 H   0  0  0  0  0  0  0  0  0  0  0  0
   20.6501   20.1819   22.4087 C   0  0  0  0  0  0  0  0  0  0  0  0
   21.5076   20.3314   21.7380 H   0  0  0  0  0  0  0  0  0  0  0  0
   21.0210   20.3594   23.4278 H   0  0  0  0  0  0  0  0  0  0  0  0
   19.5655   21.2310   22.0627 C   0  0  0  0  0  0  0  0  0  0  0  0
   20.0237   22.2299   22.0770 H   0  0  0  0  0  0  0  0  0  0  0  0
   19.2086   21.0720   21.0354 H   0  0  0  0  0  0  0  0  0  0  0  0
   18.3657   21.2196   23.0374 C   0  0  0  0  0  0  0  0  0  0  0  0
   18.6986   21.3486   24.0754 H   0  0  0  0  0  0  0  0  0  0  0  0
   17.6730   22.0383   22.8034 H   0  0  0  0  0  0  0  0  0  0  0  0
   17.8008   20.2816   22.9711 H   0  0  0  0  0  0  0  0  0  0  0  0
  1  2  1  0  0  0  0
  1  3  1  0  0  0  0
  1  4  1  0  0  0  0
  1  5  1  0  0  0  0
  5  6  1  0  0  0  0
  5  7  1  0  0  0  0
  5  8  1  0  0  0  0
  8  9  1  0  0  0  0
  8 10  1  0  0  0  0
  8 11  1  0  0  0  0
 11 12  1  0  0  0  0
 11 13  1  0  0  0  0
 11 14  1  0  0  0  0
 14 15  1  0  0  0  0
 14 16  1  0  0  0  0
 14 17  1  0  0  0  0
 17 18  1  0  0  0  0
 17 19  1  0  0  0  0
 17 20  1  0  0  0  0
M  END
> <VConfSearch Rank>
610

> <Conf_Id>
42

> <Delta U+W>
0.508

> <U+W>
-11.270

> <U>
46.486

> <W>
-57.756

> <W(PB)>
-59.705

> <W(SA)>
1.949

> <Valence>
1.806

> <Coulomb>
44.248

> <VdW>
0.433

> <VdW6>
-4.089

> <VdW12>
4.522

> <Bond>
0.131

> <Angle>
0.628

> <Pdih>
1.047

> <Idih>
0.000

> <Tether>
0.000

$$$$
VeraChem MOL file


 20 19  0  0  0  0  0  0  0  0999 V2000     
   19.8564   17.3020   20.0624 N   0  3  0  0  0  0  0  0  0  0  0  0
   19.0157   16.7988   20.3632 H   0  0  0  0  0  0  0  0  0  0  0  0
   19.5451   18.0968   19.4951 H   0  0  0  0  0  0  0  0  0  0  0  0
   20.3708   16.6735   19.4364 H   0  0  0  0  0  0  0  0  0  0  0  0
   20.7041   17.7429   21.2386 C   0  0  0  0  0  0  0  0  0  0  0  0
   21.5933   18.2431   20.8453 H   0  0  0  0  0  0  0  0  0  0  0  0
   21.0245   16.8474   21.7779 H   0  0  0  0  0  0  0  0  0  0  0  0
   19.9610   18.6881   22.1997 C   0  0  0  0  0  0  0  0  0  0  0  0
   19.6289   19.5742   21.6443 H   0  0  0  0  0  0  0  0  0  0  0  0
   19.0606   18.1876   22.5799 H   0  0  0  0  0  0  0  0  0  0  0  0
   20.8619   19.1100   23.3844 C   0  0  0  0  0  0  0  0  0  0  0  0
   21.7404   19.6515   23.0069 H   0  0  0  0  0  0  0  0  0  0  0  0
   21.2456   18.2078   23.8810 H   0  0  0  0  0  0  0  0  0  0  0  0
   20.1314   19.9787   24.4373 C   0  0  0  0  0  0  0  0  0  0  0  0
   19.2655   19.4312   24.8352 H   0  0  0  0  0  0  0  0  0  0  0  0
   20.8072   20.1439   25.2882 H   0  0  0  0  0  0  0  0  0  0  0  0
   19.6731   21.3504   23.8917 C   0  0  0  0  0  0  0  0  0  0  0  0
   18.9035   21.2403   23.1178 H   0  0  0  0  0  0  0  0  0  0  0  0
   19.2449   21.9606   24.6974 H   0  0  0  0  0  0  0  0  0  0  0  0
   20.5164   21.9067   23.4622 H   0  0  0  0  0  0  0  0  0  0  0  0
  1  2  1  0  0  0  0
  1  3  1  0  0  0  0
  1  4  1  0  0  0  0
  1  5  1  0  0  0  0
  5  6  1  0  0  0  0
  5  7  1  0  0  0  0
  5  8  1  0  0  0  0
  8  9  1  0  0  0  0
  8 10  1  0  0  0  0
  8 11  1  0  0  0  0
 11 12  1  0  0  0  0
 11 13  1  0  0  0  0
 11 14  1  0  0  0  0
 14 15  1  0  0  0  0
 14 16  1  0  0  0  0
 14 17  1  0  0  0  0
 17 18  1  0  0  0  0
 17 19  1  0  0  0  0
 17 20  1  0  0  0  0
M  END
> <VConfSearch Rank>
611

> <Conf_Id>
41

> <Delta U+W>
0.515

> <U+W>
-11.263

> <U>
46.486

> <W>
-57.749

> <W(PB)>
-59.685

> <W(SA)>
1.936

> <Valence>
1.806

> <Coulomb>
44.248

> <VdW>
0.433

> <VdW6>
-4.089

> <VdW12>
4.522

> <Bond>
0.131

> <Angle>
0.628

> <Pdih>
1.047

> <Idih>
0.000

> <Tether>
0.000

$$$$
VeraChem MOL file


 20 19  0  0  0  0  0  0  0  0999 V2000     
   21.4073   21.4334   23.3265 N   0  3  0  0  0  0  0  0  0  0  0  0
   21.9784   21.9503   24.0034 H   0  0  0  0  0  0  0  0  0  0  0  0
   22.0433   21.0894   22.6012 H   0  0  0  0  0  0  0  0  0  0  0  0
   20.7822   22.1138   22.8834 H   0  0  0  0  0  0  0  0  0  0  0  0
   20.6379   20.3046   23.9854 C   0  0  0  0  0  0  0  0  0  0  0  0
   20.0181   20.7427   24.7725 H   0  0  0  0  0  0  0  0  0  0  0  0
   21.3590   19.6310   24.4562 H   0  0  0  0  0  0  0  0  0  0  0  0
   19.7421   19.5095   23.0152 C   0  0  0  0  0  0  0  0  0  0  0  0
   19.1468   18.8028   23.6065 H   0  0  0  0  0  0  0  0  0  0  0  0
   19.0307   20.1915   22.5309 H   0  0  0  0  0  0  0  0  0  0  0  0
   20.5554   18.7406   21.9435 C   0  0  0  0  0  0  0  0  0  0  0  0
   21.2488   18.0440   22.4349 H   0  0  0  0  0  0  0  0  0  0  0  0
   21.1769   19.4482   21.3790 H   0  0  0  0  0  0  0  0  0  0  0  0
   19.6707   17.9653   20.9370 C   0  0  0  0  0  0  0  0  0  0  0  0
   18.9846   18.6601   20.4328 H   0  0  0  0  0  0  0  0  0  0  0  0
   20.3153   17.5468   20.1513 H   0  0  0  0  0  0  0  0  0  0  0  0
   18.8647   16.8151   21.5828 C   0  0  0  0  0  0  0  0  0  0  0  0
   18.1148   17.1934   22.2884 H   0  0  0  0  0  0  0  0  0  0  0  0
   18.3321   16.2407   20.8138 H   0  0  0  0  0  0  0  0  0  0  0  0
   19.5254   16.1227   22.1205 H   0  0  0  0  0  0  0  0  0  0  0  0
  1  2  1  0  0  0  0
  1  3  1  0  0  0  0
  1  4  1  0  0  0  0
  1  5  1  0  0  0  0
  5  6  1  0  0  0  0
  5  7  1  0  0  0  0
  5  8  1  0  0  0  0
  8  9  1  0  0  0  0
  8 10  1  0  0  0  0
  8 11  1  0  0  0  0
 11 12  1  0  0  0  0
 11 13  1  0  0  0  0
 11 14  1  0  0  0  0
 14 15  1  0  0  0  0
 14 16  1  0  0  0  0
 14 17  1  0  0  0  0
 17 18  1  0  0  0  0
 17 19  1  0  0  0  0
 17 20  1  0  0  0  0
M  END
> <VConfSearch Rank>
612

> <Conf_Id>
33

> <Delta U+W>
0.703

> <U+W>
-11.075

> <U>
47.080

> <W>
-58.154

> <W(PB)>
-60.053

> <W(SA)>
1.899

> <Valence>
1.943

> <Coulomb>
44.572

> <VdW>
0.565

> <VdW6>
-4.575

> <VdW12>
5.139

> <Bond>
0.158

> <Angle>
0.700

> <Pdih>
1.085

> <Idih>
0.000

> <Tether>
0.000

$$$$
VeraChem MOL file


 20 19  0  0  0  0  0  0  0  0999 V2000     
   21.2010   21.3042   21.1234 N   0  3  0  0  0  0  0  0  0  0  0  0
   21.8610   21.7224   20.4593 H   0  0  0  0  0  0  0  0  0  0  0  0
   20.3593   21.8886   21.1146 H   0  0  0  0  0  0  0  0  0  0  0  0
   21.6198   21.3905   22.0540 H   0  0  0  0  0  0  0  0  0  0  0  0
   20.8906   19.8612   20.7749 C   0  0  0  0  0  0  0  0  0  0  0  0
   21.8293   19.3007   20.7792 H   0  0  0  0  0  0  0  0  0  0  0  0
   20.4905   19.8458   19.7574 H   0  0  0  0  0  0  0  0  0  0  0  0
   19.8821   19.1911   21.7287 C   0  0  0  0  0  0  0  0  0  0  0  0
   18.9465   19.7660   21.7355 H   0  0  0  0  0  0  0  0  0  0  0  0
   19.6393   18.2010   21.3233 H   0  0  0  0  0  0  0  0  0  0  0  0
   20.4280   19.0468   23.1717 C   0  0  0  0  0  0  0  0  0  0  0  0
   20.7033   20.0366   23.5591 H   0  0  0  0  0  0  0  0  0  0  0  0
   21.3516   18.4516   23.1598 H   0  0  0  0  0  0  0  0  0  0  0  0
   19.4148   18.4088   24.1532 C   0  0  0  0  0  0  0  0  0  0  0  0
   19.8350   18.4484   25.1680 H   0  0  0  0  0  0  0  0  0  0  0  0
   18.4940   19.0082   24.1791 H   0  0  0  0  0  0  0  0  0  0  0  0
   19.0701   16.9401   23.8157 C   0  0  0  0  0  0  0  0  0  0  0  0
   19.9776   16.3255   23.7528 H   0  0  0  0  0  0  0  0  0  0  0  0
   18.4265   16.5084   24.5931 H   0  0  0  0  0  0  0  0  0  0  0  0
   18.5331   16.8597   22.8626 H   0  0  0  0  0  0  0  0  0  0  0  0
  1  2  1  0  0  0  0
  1  3  1  0  0  0  0
  1  4  1  0  0  0  0
  1  5  1  0  0  0  0
  5  6  1  0  0  0  0
  5  7  1  0  0  0  0
  5  8  1  0  0  0  0
  8  9  1  0  0  0  0
  8 10  1  0  0  0  0
  8 11  1  0  0  0  0
 11 12  1  0  0  0  0
 11 13  1  0  0  0  0
 11 14  1  0  0  0  0
 14 15  1  0  0  0  0
 14 16  1  0  0  0  0
 14 17  1  0  0  0  0
 17 18  1  0  0  0  0
 17 19  1  0  0  0  0
 17 20  1  0  0  0  0
M  END
> <VConfSearch Rank>
613

> <Conf_Id>
24

> <Delta U+W>
0.847

> <U+W>
-10.931

> <U>
47.080

> <W>
-58.011

> <W(PB)>
-59.914

> <W(SA)>
1.903

> <Valence>
1.943

> <Coulomb>
44.572

> <VdW>
0.565

> <VdW6>
-4.575

> <VdW12>
5.140

> <Bond>
0.158

> <Angle>
0.700

> <Pdih>
1.085

> <Idih>
0.000

> <Tether>
0.000

$$$$
VeraChem MOL file


 20 19  0  0  0  0  0  0  0  0999 V2000     
   21.2799   17.3277   24.1304 N   0  3  0  0  0  0  0  0  0  0  0  0
   21.4699   17.4150   25.1343 H   0  0  0  0  0  0  0  0  0  0  0  0
   20.4677   16.7103   24.0341 H   0  0  0  0  0  0  0  0  0  0  0  0
   22.0806   16.8386   23.7181 H   0  0  0  0  0  0  0  0  0  0  0  0
   21.0459   18.6772   23.4820 C   0  0  0  0  0  0  0  0  0  0  0  0
   21.9357   19.2907   23.6476 H   0  0  0  0  0  0  0  0  0  0  0  0
   20.2018   19.1516   23.9893 H   0  0  0  0  0  0  0  0  0  0  0  0
   20.7567   18.5813   21.9721 C   0  0  0  0  0  0  0  0  0  0  0  0
   21.5916   18.0664   21.4787 H   0  0  0  0  0  0  0  0  0  0  0  0
   19.8690   17.9582   21.8043 H   0  0  0  0  0  0  0  0  0  0  0  0
   20.5635   19.9682   21.3095 C   0  0  0  0  0  0  0  0  0  0  0  0
   20.3738   19.8270   20.2365 H   0  0  0  0  0  0  0  0  0  0  0  0
   21.5052   20.5304   21.3781 H   0  0  0  0  0  0  0  0  0  0  0  0
   19.4247   20.8270   21.9169 C   0  0  0  0  0  0  0  0  0  0  0  0
   19.6491   21.0686   22.9648 H   0  0  0  0  0  0  0  0  0  0  0  0
   19.3908   21.7891   21.3868 H   0  0  0  0  0  0  0  0  0  0  0  0
   18.0343   20.1583   21.8239 C   0  0  0  0  0  0  0  0  0  0  0  0
   17.2539   20.8427   22.1808 H   0  0  0  0  0  0  0  0  0  0  0  0
   17.7948   19.8877   20.7874 H   0  0  0  0  0  0  0  0  0  0  0  0
   17.9822   19.2503   22.4375 H   0  0  0  0  0  0  0  0  0  0  0  0
  1  2  1  0  0  0  0
  1  3  1  0  0  0  0
  1  4  1  0  0  0  0
  1  5  1  0  0  0  0
  5  6  1  0  0  0  0
  5  7  1  0  0  0  0
  5  8  1  0  0  0  0
  8  9  1  0  0  0  0
  8 10  1  0  0  0  0
  8 11  1  0  0  0  0
 11 12  1  0  0  0  0
 11 13  1  0  0  0  0
 11 14  1  0  0  0  0
 14 15  1  0  0  0  0
 14 16  1  0  0  0  0
 14 17  1  0  0  0  0
 17 18  1  0  0  0  0
 17 19  1  0  0  0  0
 17 20  1  0  0  0  0
M  END
> <VConfSearch Rank>
614

> <Conf_Id>
64

> <Delta U+W>
0.707

> <U+W>
-11.070

> <U>
47.077

> <W>
-58.148

> <W(PB)>
-60.054

> <W(SA)>
1.906

> <Valence>
2.039

> <Coulomb>
44.655

> <VdW>
0.383

> <VdW6>
-4.912

> <VdW12>
5.295

> <Bond>
0.159

> <Angle>
0.856

> <Pdih>
1.024

> <Idih>
0.000

> <Tether>
0.000

$$$$
VeraChem MOL file


 20 19  0  0  0  0  0  0  0  0999 V2000     
   17.9080   18.4912   23.8889 N   0  3  0  0  0  0  0  0  0  0  0  0
   17.4304   19.3128   24.2725 H   0  0  0  0  0  0  0  0  0  0  0  0
   17.4164   18.2317   23.0279 H   0  0  0  0  0  0  0  0  0  0  0  0
   17.7642   17.7256   24.5558 H   0  0  0  0  0  0  0  0  0  0  0  0
   19.3798   18.7552   23.6433 C   0  0  0  0  0  0  0  0  0  0  0  0
   19.8281   17.8324   23.2658 H   0  0  0  0  0  0  0  0  0  0  0  0
   19.8448   18.9961   24.6031 H   0  0  0  0  0  0  0  0  0  0  0  0
   19.6308   19.9005   22.6444 C   0  0  0  0  0  0  0  0  0  0  0  0
   19.1566   19.6639   21.6833 H   0  0  0  0  0  0  0  0  0  0  0  0
   19.1413   20.8119   23.0127 H   0  0  0  0  0  0  0  0  0  0  0  0
   21.1374   20.1932   22.4340 C   0  0  0  0  0  0  0  0  0  0  0  0
   21.5670   20.5494   23.3806 H   0  0  0  0  0  0  0  0  0  0  0  0
   21.2430   21.0241   21.7229 H   0  0  0  0  0  0  0  0  0  0  0  0
   21.9708   18.9867   21.9309 C   0  0  0  0  0  0  0  0  0  0  0  0
   23.0197   19.3008   21.8359 H   0  0  0  0  0  0  0  0  0  0  0  0
   21.9644   18.1824   22.6792 H   0  0  0  0  0  0  0  0  0  0  0  0
   21.4916   18.4337   20.5695 C   0  0  0  0  0  0  0  0  0  0  0  0
   21.4693   19.2240   19.8080 H   0  0  0  0  0  0  0  0  0  0  0  0
   22.1683   17.6454   20.2150 H   0  0  0  0  0  0  0  0  0  0  0  0
   20.4875   17.9977   20.6427 H   0  0  0  0  0  0  0  0  0  0  0  0
  1  2  1  0  0  0  0
  1  3  1  0  0  0  0
  1  4  1  0  0  0  0
  1  5  1  0  0  0  0
  5  6  1  0  0  0  0
  5  7  1  0  0  0  0
  5  8  1  0  0  0  0
  8  9  1  0  0  0  0
  8 10  1  0  0  0  0
  8 11  1  0  0  0  0
 11 12  1  0  0  0  0
 11 13  1  0  0  0  0
 11 14  1  0  0  0  0
 14 15  1  0  0  0  0
 14 16  1  0  0  0  0
 14 17  1  0  0  0  0
 17 18  1  0  0  0  0
 17 19  1  0  0  0  0
 17 20  1  0  0  0  0
M  END
> <VConfSearch Rank>
615

> <Conf_Id>
22

> <Delta U+W>
0.731

> <U+W>
-11.047

> <U>
47.078

> <W>
-58.125

> <W(PB)>
-60.031

> <W(SA)>
1.906

> <Valence>
2.039

> <Coulomb>
44.655

> <VdW>
0.383

> <VdW6>
-4.913

> <VdW12>
5.296

> <Bond>
0.159

> <Angle>
0.856

> <Pdih>
1.024

> <Idih>
0.000

> <Tether>
0.000

$$$$
VeraChem MOL file


 20 19  0  0  0  0  0  0  0  0999 V2000     
   18.7405   16.8589   22.5947 N   0  3  0  0  0  0  0  0  0  0  0  0
   19.4405   16.1714   22.2985 H   0  0  0  0  0  0  0  0  0  0  0  0
   18.4531   16.6055   23.5452 H   0  0  0  0  0  0  0  0  0  0  0  0
   17.9214   16.7280   21.9918 H   0  0  0  0  0  0  0  0  0  0  0  0
   19.2726   18.2760   22.5227 C   0  0  0  0  0  0  0  0  0  0  0  0
   18.4701   18.9546   22.8241 H   0  0  0  0  0  0  0  0  0  0  0  0
   19.5288   18.4814   21.4809 H   0  0  0  0  0  0  0  0  0  0  0  0
   20.5071   18.5038   23.4132 C   0  0  0  0  0  0  0  0  0  0  0  0
   20.2698   18.1794   24.4352 H   0  0  0  0  0  0  0  0  0  0  0  0
   21.3299   17.8638   23.0681 H   0  0  0  0  0  0  0  0  0  0  0  0
   20.9814   19.9784   23.4644 C   0  0  0  0  0  0  0  0  0  0  0  0
   21.8014   20.0358   24.1937 H   0  0  0  0  0  0  0  0  0  0  0  0
   20.1835   20.6193   23.8642 H   0  0  0  0  0  0  0  0  0  0  0  0
   21.4986   20.5452   22.1167 C   0  0  0  0  0  0  0  0  0  0  0  0
   22.2396   21.3275   22.3335 H   0  0  0  0  0  0  0  0  0  0  0  0
   22.0366   19.7673   21.5571 H   0  0  0  0  0  0  0  0  0  0  0  0
   20.3934   21.1729   21.2350 C   0  0  0  0  0  0  0  0  0  0  0  0
   19.6597   20.4332   20.8984 H   0  0  0  0  0  0  0  0  0  0  0  0
   19.8572   21.9620   21.7781 H   0  0  0  0  0  0  0  0  0  0  0  0
   20.8334   21.6282   20.3383 H   0  0  0  0  0  0  0  0  0  0  0  0
  1  2  1  0  0  0  0
  1  3  1  0  0  0  0
  1  4  1  0  0  0  0
  1  5  1  0  0  0  0
  5  6  1  0  0  0  0
  5  7  1  0  0  0  0
  5  8  1  0  0  0  0
  8  9  1  0  0  0  0
  8 10  1  0  0  0  0
  8 11  1  0  0  0  0
 11 12  1  0  0  0  0
 11 13  1  0  0  0  0
 11 14  1  0  0  0  0
 14 15  1  0  0  0  0
 14 16  1  0  0  0  0
 14 17  1  0  0  0  0
 17 18  1  0  0  0  0
 17 19  1  0  0  0  0
 17 20  1  0  0  0  0
M  END
> <VConfSearch Rank>
616

> <Conf_Id>
61

> <Delta U+W>
2.669

> <U+W>
-9.108

> <U>
48.916

> <W>
-58.025

> <W(PB)>
-59.935

> <W(SA)>
1.911

> <Valence>
3.785

> <Coulomb>
44.716

> <VdW>
0.415

> <VdW6>
-4.836

> <VdW12>
5.251

> <Bond>
0.175

> <Angle>
1.195

> <Pdih>
2.415

> <Idih>
0.000

> <Tether>
0.000

$$$$
VeraChem MOL file


 20 19  0  0  0  0  0  0  0  0999 V2000     
   18.9668   18.2506   24.2320 N   0  3  0  0  0  0  0  0  0  0  0  0
   18.0583   18.2472   24.7076 H   0  0  0  0  0  0  0  0  0  0  0  0
   19.6220   17.7501   24.8407 H   0  0  0  0  0  0  0  0  0  0  0  0
   19.2792   19.2240   24.1877 H   0  0  0  0  0  0  0  0  0  0  0  0
   18.8827   17.6187   22.8557 C   0  0  0  0  0  0  0  0  0  0  0  0
   18.1304   18.1550   22.2712 H   0  0  0  0  0  0  0  0  0  0  0  0
   18.5320   16.5929   22.9978 H   0  0  0  0  0  0  0  0  0  0  0  0
   20.2202   17.5886   22.0865 C   0  0  0  0  0  0  0  0  0  0  0  0
   21.0368   17.3012   22.7622 H   0  0  0  0  0  0  0  0  0  0  0  0
   20.1556   16.7893   21.3363 H   0  0  0  0  0  0  0  0  0  0  0  0
   20.5687   18.9060   21.3472 C   0  0  0  0  0  0  0  0  0  0  0  0
   19.7690   19.1479   20.6335 H   0  0  0  0  0  0  0  0  0  0  0  0
   21.4719   18.7318   20.7460 H   0  0  0  0  0  0  0  0  0  0  0  0
   20.8141   20.1176   22.2768 C   0  0  0  0  0  0  0  0  0  0  0  0
   19.8799   20.4037   22.7762 H   0  0  0  0  0  0  0  0  0  0  0  0
   21.5354   19.8473   23.0607 H   0  0  0  0  0  0  0  0  0  0  0  0
   21.3456   21.3368   21.4932 C   0  0  0  0  0  0  0  0  0  0  0  0
   21.5051   22.1902   22.1650 H   0  0  0  0  0  0  0  0  0  0  0  0
   22.3032   21.1082   21.0074 H   0  0  0  0  0  0  0  0  0  0  0  0
   20.6343   21.6479   20.7169 H   0  0  0  0  0  0  0  0  0  0  0  0
  1  2  1  0  0  0  0
  1  3  1  0  0  0  0
  1  4  1  0  0  0  0
  1  5  1  0  0  0  0
  5  6  1  0  0  0  0
  5  7  1  0  0  0  0
  5  8  1  0  0  0  0
  8  9  1  0  0  0  0
  8 10  1  0  0  0  0
  8 11  1  0  0  0  0
 11 12  1  0  0  0  0
 11 13  1  0  0  0  0
 11 14  1  0  0  0  0
 14 15  1  0  0  0  0
 14 16  1  0  0  0  0
 14 17  1  0  0  0  0
 17 18  1  0  0  0  0
 17 19  1  0  0  0  0
 17 20  1  0  0  0  0
M  END
> <VConfSearch Rank>
617

> <Conf_Id>
69

> <Delta U+W>
2.811

> <U+W>
-8.967

> <U>
49.216

> <W>
-58.183

> <W(PB)>
-60.064

> <W(SA)>
1.881

> <Valence>
2.929

> <Coulomb>
46.006

> <VdW>
0.281

> <VdW6>
-4.909

> <VdW12>
5.190

> <Bond>
0.156

> <Angle>
0.974

> <Pdih>
1.799

> <Idih>
0.000

> <Tether>
0.000

$$$$
VeraChem MOL file


 20 19  0  0  0  0  0  0  0  0999 V2000     
   18.8371   21.0769   22.1448 N   0  3  0  0  0  0  0  0  0  0  0  0
   18.9985   20.4286   21.3698 H   0  0  0  0  0  0  0  0  0  0  0  0
   17.8918   20.8974   22.4975 H   0  0  0  0  0  0  0  0  0  0  0  0
   18.8316   22.0232   21.7498 H   0  0  0  0  0  0  0  0  0  0  0  0
   19.8816   20.9292   23.2347 C   0  0  0  0  0  0  0  0  0  0  0  0
   19.6394   21.6627   24.0086 H   0  0  0  0  0  0  0  0  0  0  0  0
   20.8589   21.1877   22.8184 H   0  0  0  0  0  0  0  0  0  0  0  0
   19.9392   19.5263   23.8750 C   0  0  0  0  0  0  0  0  0  0  0  0
   20.3945   19.6317   24.8687 H   0  0  0  0  0  0  0  0  0  0  0  0
   18.9224   19.1497   24.0487 H   0  0  0  0  0  0  0  0  0  0  0  0
   20.7717   18.4881   23.0795 C   0  0  0  0  0  0  0  0  0  0  0  0
   20.8391   17.5711   23.6810 H   0  0  0  0  0  0  0  0  0  0  0  0
   21.8013   18.8546   22.9653 H   0  0  0  0  0  0  0  0  0  0  0  0
   20.1939   18.1320   21.6896 C   0  0  0  0  0  0  0  0  0  0  0  0
   19.1313   17.8673   21.7831 H   0  0  0  0  0  0  0  0  0  0  0  0
   20.2573   19.0005   21.0221 H   0  0  0  0  0  0  0  0  0  0  0  0
   20.9569   16.9571   21.0410 C   0  0  0  0  0  0  0  0  0  0  0  0
   20.8868   16.0514   21.6574 H   0  0  0  0  0  0  0  0  0  0  0  0
   20.5412   16.7234   20.0522 H   0  0  0  0  0  0  0  0  0  0  0  0
   22.0194   17.2004   20.9106 H   0  0  0  0  0  0  0  0  0  0  0  0
  1  2  1  0  0  0  0
  1  3  1  0  0  0  0
  1  4  1  0  0  0  0
  1  5  1  0  0  0  0
  5  6  1  0  0  0  0
  5  7  1  0  0  0  0
  5  8  1  0  0  0  0
  8  9  1  0  0  0  0
  8 10  1  0  0  0  0
  8 11  1  0  0  0  0
 11 12  1  0  0  0  0
 11 13  1  0  0  0  0
 11 14  1  0  0  0  0
 14 15  1  0  0  0  0
 14 16  1  0  0  0  0
 14 17  1  0  0  0  0
 17 18  1  0  0  0  0
 17 19  1  0  0  0  0
 17 20  1  0  0  0  0
M  END
> <VConfSearch Rank>
618

> <Conf_Id>
26

> <Delta U+W>
2.809

> <U+W>
-8.969

> <U>
49.216

> <W>
-58.185

> <W(PB)>
-60.088

> <W(SA)>
1.903

> <Valence>
2.929

> <Coulomb>
46.006

> <VdW>
0.281

> <VdW6>
-4.909

> <VdW12>
5.190

> <Bond>
0.156

> <Angle>
0.974

> <Pdih>
1.799

> <Idih>
0.000

> <Tether>
0.000

$$$$
VeraChem MOL file


 20 19  0  0  0  0  0  0  0  0999 V2000     
   19.2306   17.0703   21.6743 N   0  3  0  0  0  0  0  0  0  0  0  0
   20.2027   16.8987   21.9471 H   0  0  0  0  0  0  0  0  0  0  0  0
   18.6368   16.5425   22.3215 H   0  0  0  0  0  0  0  0  0  0  0  0
   19.1013   16.6560   20.7454 H   0  0  0  0  0  0  0  0  0  0  0  0
   18.8981   18.5496   21.6832 C   0  0  0  0  0  0  0  0  0  0  0  0
   17.8613   18.6599   21.3540 H   0  0  0  0  0  0  0  0  0  0  0  0
   19.5406   19.0469   20.9518 H   0  0  0  0  0  0  0  0  0  0  0  0
   19.0702   19.2151   23.0637 C   0  0  0  0  0  0  0  0  0  0  0  0
   18.7371   20.2588   22.9973 H   0  0  0  0  0  0  0  0  0  0  0  0
   18.3961   18.7309   23.7825 H   0  0  0  0  0  0  0  0  0  0  0  0
   20.5211   19.1655   23.6111 C   0  0  0  0  0  0  0  0  0  0  0  0
   20.7914   18.1238   23.8301 H   0  0  0  0  0  0  0  0  0  0  0  0
   20.5528   19.6894   24.5764 H   0  0  0  0  0  0  0  0  0  0  0  0
   21.5921   19.7752   22.6708 C   0  0  0  0  0  0  0  0  0  0  0  0
   22.5776   19.6673   23.1453 H   0  0  0  0  0  0  0  0  0  0  0  0
   21.6448   19.2046   21.7337 H   0  0  0  0  0  0  0  0  0  0  0  0
   21.3524   21.2692   22.3559 C   0  0  0  0  0  0  0  0  0  0  0  0
   21.2791   21.8602   23.2780 H   0  0  0  0  0  0  0  0  0  0  0  0
   22.1818   21.6750   21.7624 H   0  0  0  0  0  0  0  0  0  0  0  0
   20.4310   21.4164   21.7789 H   0  0  0  0  0  0  0  0  0  0  0  0
  1  2  1  0  0  0  0
  1  3  1  0  0  0  0
  1  4  1  0  0  0  0
  1  5  1  0  0  0  0
  5  6  1  0  0  0  0
  5  7  1  0  0  0  0
  5  8  1  0  0  0  0
  8  9  1  0  0  0  0
  8 10  1  0  0  0  0
  8 11  1  0  0  0  0
 11 12  1  0  0  0  0
 11 13  1  0  0  0  0
 11 14  1  0  0  0  0
 14 15  1  0  0  0  0
 14 16  1  0  0  0  0
 14 17  1  0  0  0  0
 17 18  1  0  0  0  0
 17 19  1  0  0  0  0
 17 20  1  0  0  0  0
M  END
> <VConfSearch Rank>
619

> <Conf_Id>
2

> <Delta U+W>
0.994

> <U+W>
-10.784

> <U>
47.562

> <W>
-58.346

> <W(PB)>
-60.221

> <W(SA)>
1.875

> <Valence>
2.149

> <Coulomb>
45.034

> <VdW>
0.378

> <VdW6>
-5.599

> <VdW12>
5.977

> <Bond>
0.185

> <Angle>
0.935

> <Pdih>
1.028

> <Idih>
0.000

> <Tether>
0.000

$$$$
VeraChem MOL file


 20 19  0  0  0  0  0  0  0  0999 V2000     
   19.4987   21.3860   22.7712 N   0  3  0  0  0  0  0  0  0  0  0  0
   18.6721   21.7053   22.2565 H   0  0  0  0  0  0  0  0  0  0  0  0
   19.1645   20.8630   23.5859 H   0  0  0  0  0  0  0  0  0  0  0  0
   19.9720   22.2239   23.1251 H   0  0  0  0  0  0  0  0  0  0  0  0
   20.4142   20.5459   21.9022 C   0  0  0  0  0  0  0  0  0  0  0  0
   21.2871   20.2671   22.4982 H   0  0  0  0  0  0  0  0  0  0  0  0
   20.7554   21.1732   21.0742 H   0  0  0  0  0  0  0  0  0  0  0  0
   19.7421   19.2770   21.3396 C   0  0  0  0  0  0  0  0  0  0  0  0
   18.8875   19.5698   20.7154 H   0  0  0  0  0  0  0  0  0  0  0  0
   20.4463   18.7729   20.6654 H   0  0  0  0  0  0  0  0  0  0  0  0
   19.2615   18.2823   22.4290 C   0  0  0  0  0  0  0  0  0  0  0  0
   18.8293   17.4003   21.9364 H   0  0  0  0  0  0  0  0  0  0  0  0
   18.4395   18.7364   22.9986 H   0  0  0  0  0  0  0  0  0  0  0  0
   20.3618   17.8193   23.4178 C   0  0  0  0  0  0  0  0  0  0  0  0
   20.7416   18.6751   23.9923 H   0  0  0  0  0  0  0  0  0  0  0  0
   19.9089   17.1397   24.1533 H   0  0  0  0  0  0  0  0  0  0  0  0
   21.5394   17.0934   22.7286 C   0  0  0  0  0  0  0  0  0  0  0  0
   22.0962   17.7679   22.0663 H   0  0  0  0  0  0  0  0  0  0  0  0
   22.2448   16.7087   23.4765 H   0  0  0  0  0  0  0  0  0  0  0  0
   21.1844   16.2421   22.1333 H   0  0  0  0  0  0  0  0  0  0  0  0
  1  2  1  0  0  0  0
  1  3  1  0  0  0  0
  1  4  1  0  0  0  0
  1  5  1  0  0  0  0
  5  6  1  0  0  0  0
  5  7  1  0  0  0  0
  5  8  1  0  0  0  0
  8  9  1  0  0  0  0
  8 10  1  0  0  0  0
  8 11  1  0  0  0  0
 11 12  1  0  0  0  0
 11 13  1  0  0  0  0
 11 14  1  0  0  0  0
 14 15  1  0  0  0  0
 14 16  1  0  0  0  0
 14 17  1  0  0  0  0
 17 18  1  0  0  0  0
 17 19  1  0  0  0  0
 17 20  1  0  0  0  0
M  END
> <VConfSearch Rank>
620

> <Conf_Id>
1

> <Delta U+W>
1.032

> <U+W>
-10.746

> <U>
47.562

> <W>
-58.308

> <W(PB)>
-60.184

> <W(SA)>
1.877

> <Valence>
2.149

> <Coulomb>
45.035

> <VdW>
0.378

> <VdW6>
-5.599

> <VdW12>
5.978

> <Bond>
0.185

> <Angle>
0.935

> <Pdih>
1.028

> <Idih>
0.000

> <Tether>
0.000

$$$$
VeraChem MOL file


 20 19  0  0  0  0  0  0  0  0999 V2000     
   21.2099   20.8879   21.3162 N   0  3  0  0  0  0  0  0  0  0  0  0
   22.2281   20.9993   21.3468 H   0  0  0  0  0  0  0  0  0  0  0  0
   21.0072   20.1383   20.6486 H   0  0  0  0  0  0  0  0  0  0  0  0
   20.8272   21.7528   20.9204 H   0  0  0  0  0  0  0  0  0  0  0  0
   20.6330   20.5927   22.6873 C   0  0  0  0  0  0  0  0  0  0  0  0
   19.5492   20.5175   22.5869 H   0  0  0  0  0  0  0  0  0  0  0  0
   20.8524   21.4514   23.3276 H   0  0  0  0  0  0  0  0  0  0  0  0
   21.2020   19.3155   23.3414 C   0  0  0  0  0  0  0  0  0  0  0  0
   22.2919   19.4273   23.4148 H   0  0  0  0  0  0  0  0  0  0  0  0
   20.8374   19.2429   24.3746 H   0  0  0  0  0  0  0  0  0  0  0  0
   20.8823   17.9992   22.5828 C   0  0  0  0  0  0  0  0  0  0  0  0
   21.6419   17.2564   22.8632 H   0  0  0  0  0  0  0  0  0  0  0  0
   20.9960   18.1387   21.5001 H   0  0  0  0  0  0  0  0  0  0  0  0
   19.4944   17.3822   22.8945 C   0  0  0  0  0  0  0  0  0  0  0  0
   19.4229   16.4159   22.3757 H   0  0  0  0  0  0  0  0  0  0  0  0
   19.4220   17.1554   23.9674 H   0  0  0  0  0  0  0  0  0  0  0  0
   18.2925   18.2556   22.4719 C   0  0  0  0  0  0  0  0  0  0  0  0
   18.3921   18.5958   21.4331 H   0  0  0  0  0  0  0  0  0  0  0  0
   17.3590   17.6834   22.5490 H   0  0  0  0  0  0  0  0  0  0  0  0
   18.1879   19.1325   23.1216 H   0  0  0  0  0  0  0  0  0  0  0  0
  1  2  1  0  0  0  0
  1  3  1  0  0  0  0
  1  4  1  0  0  0  0
  1  5  1  0  0  0  0
  5  6  1  0  0  0  0
  5  7  1  0  0  0  0
  5  8  1  0  0  0  0
  8  9  1  0  0  0  0
  8 10  1  0  0  0  0
  8 11  1  0  0  0  0
 11 12  1  0  0  0  0
 11 13  1  0  0  0  0
 11 14  1  0  0  0  0
 14 15  1  0  0  0  0
 14 16  1  0  0  0  0
 14 17  1  0  0  0  0
 17 18  1  0  0  0  0
 17 19  1  0  0  0  0
 17 20  1  0  0  0  0
M  END
> <VConfSearch Rank>
621

> <Conf_Id>
80

> <Delta U+W>
2.920

> <U+W>
-8.857

> <U>
49.434

> <W>
-58.292

> <W(PB)>
-60.170

> <W(SA)>
1.879

> <Valence>
3.798

> <Coulomb>
45.253

> <VdW>
0.384

> <VdW6>
-5.595

> <VdW12>
5.979

> <Bond>
0.198

> <Angle>
1.368

> <Pdih>
2.231

> <Idih>
0.000

> <Tether>
0.000

$$$$
VeraChem MOL file


 20 19  0  0  0  0  0  0  0  0999 V2000     
   22.0706   17.9333   21.9048 N   0  3  0  0  0  0  0  0  0  0  0  0
   22.2702   17.7740   20.9124 H   0  0  0  0  0  0  0  0  0  0  0  0
   22.9066   17.6495   22.4262 H   0  0  0  0  0  0  0  0  0  0  0  0
   21.3199   17.2892   22.1699 H   0  0  0  0  0  0  0  0  0  0  0  0
   21.6980   19.3772   22.1810 C   0  0  0  0  0  0  0  0  0  0  0  0
   22.5595   19.9954   21.9139 H   0  0  0  0  0  0  0  0  0  0  0  0
   21.5301   19.4817   23.2540 H   0  0  0  0  0  0  0  0  0  0  0  0
   20.4627   19.8640   21.3938 C   0  0  0  0  0  0  0  0  0  0  0  0
   20.3372   20.9442   21.5458 H   0  0  0  0  0  0  0  0  0  0  0  0
   20.6682   19.7333   20.3231 H   0  0  0  0  0  0  0  0  0  0  0  0
   19.1392   19.1318   21.7439 C   0  0  0  0  0  0  0  0  0  0  0  0
   19.3101   18.0530   21.8519 H   0  0  0  0  0  0  0  0  0  0  0  0
   18.4603   19.2356   20.8861 H   0  0  0  0  0  0  0  0  0  0  0  0
   18.3965   19.6778   22.9907 C   0  0  0  0  0  0  0  0  0  0  0  0
   18.1425   20.7359   22.8369 H   0  0  0  0  0  0  0  0  0  0  0  0
   17.4385   19.1468   23.0807 H   0  0  0  0  0  0  0  0  0  0  0  0
   19.1696   19.5230   24.3190 C   0  0  0  0  0  0  0  0  0  0  0  0
   20.0204   20.2127   24.3688 H   0  0  0  0  0  0  0  0  0  0  0  0
   18.5162   19.7544   25.1701 H   0  0  0  0  0  0  0  0  0  0  0  0
   19.5384   18.4974   24.4489 H   0  0  0  0  0  0  0  0  0  0  0  0
  1  2  1  0  0  0  0
  1  3  1  0  0  0  0
  1  4  1  0  0  0  0
  1  5  1  0  0  0  0
  5  6  1  0  0  0  0
  5  7  1  0  0  0  0
  5  8  1  0  0  0  0
  8  9  1  0  0  0  0
  8 10  1  0  0  0  0
  8 11  1  0  0  0  0
 11 12  1  0  0  0  0
 11 13  1  0  0  0  0
 11 14  1  0  0  0  0
 14 15  1  0  0  0  0
 14 16  1  0  0  0  0
 14 17  1  0  0  0  0
 17 18  1  0  0  0  0
 17 19  1  0  0  0  0
 17 20  1  0  0  0  0
M  END
> <VConfSearch Rank>
622

> <Conf_Id>
65

> <Delta U+W>
2.949

> <U+W>
-8.829

> <U>
49.435

> <W>
-58.263

> <W(PB)>
-60.125

> <W(SA)>
1.862

> <Valence>
3.797

> <Coulomb>
45.253

> <VdW>
0.384

> <VdW6>
-5.596

> <VdW12>
5.980

> <Bond>
0.198

> <Angle>
1.369

> <Pdih>
2.230

> <Idih>
0.000

> <Tether>
0.000

$$$$
VeraChem MOL file


 20 19  0  0  0  0  0  0  0  0999 V2000     
   21.0408   19.8066   24.0980 N   0  3  0  0  0  0  0  0  0  0  0  0
   21.9649   19.6933   24.5280 H   0  0  0  0  0  0  0  0  0  0  0  0
   21.1767   20.2848   23.2022 H   0  0  0  0  0  0  0  0  0  0  0  0
   20.5062   20.4382   24.7028 H   0  0  0  0  0  0  0  0  0  0  0  0
   20.3379   18.4757   23.9134 C   0  0  0  0  0  0  0  0  0  0  0  0
   20.2287   18.0316   24.9065 H   0  0  0  0  0  0  0  0  0  0  0  0
   20.9787   17.8203   23.3174 H   0  0  0  0  0  0  0  0  0  0  0  0
   18.9472   18.5874   23.2563 C   0  0  0  0  0  0  0  0  0  0  0  0
   18.3719   17.6959   23.5396 H   0  0  0  0  0  0  0  0  0  0  0  0
   18.4027   19.4411   23.6812 H   0  0  0  0  0  0  0  0  0  0  0  0
   18.9531   18.6739   21.7063 C   0  0  0  0  0  0  0  0  0  0  0  0
   17.9056   18.6927   21.3747 H   0  0  0  0  0  0  0  0  0  0  0  0
   19.3784   17.7540   21.2816 H   0  0  0  0  0  0  0  0  0  0  0  0
   19.6669   19.9142   21.1109 C   0  0  0  0  0  0  0  0  0  0  0  0
   19.1224   20.2327   20.2107 H   0  0  0  0  0  0  0  0  0  0  0  0
   19.6084   20.7622   21.8064 H   0  0  0  0  0  0  0  0  0  0  0  0
   21.1325   19.6338   20.7019 C   0  0  0  0  0  0  0  0  0  0  0  0
   21.7316   19.2416   21.5307 H   0  0  0  0  0  0  0  0  0  0  0  0
   21.1721   18.8958   19.8900 H   0  0  0  0  0  0  0  0  0  0  0  0
   21.6149   20.5505   20.3385 H   0  0  0  0  0  0  0  0  0  0  0  0
  1  2  1  0  0  0  0
  1  3  1  0  0  0  0
  1  4  1  0  0  0  0
  1  5  1  0  0  0  0
  5  6  1  0  0  0  0
  5  7  1  0  0  0  0
  5  8  1  0  0  0  0
  8  9  1  0  0  0  0
  8 10  1  0  0  0  0
  8 11  1  0  0  0  0
 11 12  1  0  0  0  0
 11 13  1  0  0  0  0
 11 14  1  0  0  0  0
 14 15  1  0  0  0  0
 14 16  1  0  0  0  0
 14 17  1  0  0  0  0
 17 18  1  0  0  0  0
 17 19  1  0  0  0  0
 17 20  1  0  0  0  0
M  END
> <VConfSearch Rank>
623

> <Conf_Id>
77

> <Delta U+W>
5.366

> <U+W>
-6.412

> <U>
51.542

> <W>
-57.954

> <W(PB)>
-59.811

> <W(SA)>
1.857

> <Valence>
5.347

> <Coulomb>
45.870

> <VdW>
0.325

> <VdW6>
-6.161

> <VdW12>
6.486

> <Bond>
0.201

> <Angle>
1.484

> <Pdih>
3.662

> <Idih>
0.000

> <Tether>
0.000

$$$$
VeraChem MOL file


 20 19  0  0  0  0  0  0  0  0999 V2000     
   18.4389   19.8237   22.8398 N   0  3  0  0  0  0  0  0  0  0  0  0
   17.8679   20.0375   22.0160 H   0  0  0  0  0  0  0  0  0  0  0  0
   18.5930   18.8108   22.8494 H   0  0  0  0  0  0  0  0  0  0  0  0
   17.8729   20.0551   23.6631 H   0  0  0  0  0  0  0  0  0  0  0  0
   19.7516   20.5827   22.8268 C   0  0  0  0  0  0  0  0  0  0  0  0
   20.2892   20.3696   23.7545 H   0  0  0  0  0  0  0  0  0  0  0  0
   19.5047   21.6478   22.8149 H   0  0  0  0  0  0  0  0  0  0  0  0
   20.6497   20.2607   21.6150 C   0  0  0  0  0  0  0  0  0  0  0  0
   20.0390   20.2049   20.7041 H   0  0  0  0  0  0  0  0  0  0  0  0
   21.3283   21.1112   21.4675 H   0  0  0  0  0  0  0  0  0  0  0  0
   21.5178   18.9816   21.7567 C   0  0  0  0  0  0  0  0  0  0  0  0
   22.2234   19.0984   22.5910 H   0  0  0  0  0  0  0  0  0  0  0  0
   22.1408   18.9062   20.8546 H   0  0  0  0  0  0  0  0  0  0  0  0
   20.7304   17.6551   21.9079 C   0  0  0  0  0  0  0  0  0  0  0  0
   19.7586   17.7250   21.4009 H   0  0  0  0  0  0  0  0  0  0  0  0
   21.2800   16.8603   21.3840 H   0  0  0  0  0  0  0  0  0  0  0  0
   20.5559   17.2165   23.3813 C   0  0  0  0  0  0  0  0  0  0  0  0
   19.9468   16.3053   23.4443 H   0  0  0  0  0  0  0  0  0  0  0  0
   21.5302   16.9942   23.8358 H   0  0  0  0  0  0  0  0  0  0  0  0
   20.0765   17.9872   23.9944 H   0  0  0  0  0  0  0  0  0  0  0  0
  1  2  1  0  0  0  0
  1  3  1  0  0  0  0
  1  4  1  0  0  0  0
  1  5  1  0  0  0  0
  5  6  1  0  0  0  0
  5  7  1  0  0  0  0
  5  8  1  0  0  0  0
  8  9  1  0  0  0  0
  8 10  1  0  0  0  0
  8 11  1  0  0  0  0
 11 12  1  0  0  0  0
 11 13  1  0  0  0  0
 11 14  1  0  0  0  0
 14 15  1  0  0  0  0
 14 16  1  0  0  0  0
 14 17  1  0  0  0  0
 17 18  1  0  0  0  0
 17 19  1  0  0  0  0
 17 20  1  0  0  0  0
M  END
> <VConfSearch Rank>
624

> <Conf_Id>
67

> <Delta U+W>
5.353

> <U+W>
-6.425

> <U>
51.541

> <W>
-57.966

> <W(PB)>
-59.821

> <W(SA)>
1.855

> <Valence>
5.347

> <Coulomb>
45.870

> <VdW>
0.325

> <VdW6>
-6.161

> <VdW12>
6.486

> <Bond>
0.201

> <Angle>
1.485

> <Pdih>
3.662

> <Idih>
0.000

> <Tether>
0.000

$$$$
VeraChem MOL file


 20 19  0  0  0  0  0  0  0  0999 V2000     
   20.7586   18.5747   19.3564 N   0  3  0  0  0  0  0  0  0  0  0  0
   20.3538   17.6350   19.2971 H   0  0  0  0  0  0  0  0  0  0  0  0
   20.5734   19.0352   18.4590 H   0  0  0  0  0  0  0  0  0  0  0  0
   21.7746   18.4611   19.4279 H   0  0  0  0  0  0  0  0  0  0  0  0
   20.1933   19.3628   20.5209 C   0  0  0  0  0  0  0  0  0  0  0  0
   19.1166   19.4709   20.3642 H   0  0  0  0  0  0  0  0  0  0  0  0
   20.6441   20.3588   20.5049 H   0  0  0  0  0  0  0  0  0  0  0  0
   20.4540   18.6982   21.8845 C   0  0  0  0  0  0  0  0  0  0  0  0
   20.0135   17.6922   21.8904 H   0  0  0  0  0  0  0  0  0  0  0  0
   21.5357   18.5771   22.0306 H   0  0  0  0  0  0  0  0  0  0  0  0
   19.8626   19.5320   23.0429 C   0  0  0  0  0  0  0  0  0  0  0  0
   18.7813   19.6556   22.8907 H   0  0  0  0  0  0  0  0  0  0  0  0
   20.3017   20.5394   23.0308 H   0  0  0  0  0  0  0  0  0  0  0  0
   20.1184   18.8741   24.4173 C   0  0  0  0  0  0  0  0  0  0  0  0
   19.6789   17.8668   24.4344 H   0  0  0  0  0  0  0  0  0  0  0  0
   21.1992   18.7505   24.5745 H   0  0  0  0  0  0  0  0  0  0  0  0
   19.5258   19.7105   25.5715 C   0  0  0  0  0  0  0  0  0  0  0  0
   18.4393   19.8227   25.4607 H   0  0  0  0  0  0  0  0  0  0  0  0
   19.7173   19.2275   26.5385 H   0  0  0  0  0  0  0  0  0  0  0  0
   19.9716   20.7133   25.6020 H   0  0  0  0  0  0  0  0  0  0  0  0
  1  2  1  0  0  0  0
  1  3  1  0  0  0  0
  1  4  1  0  0  0  0
  1  5  1  0  0  0  0
  5  6  1  0  0  0  0
  5  7  1  0  0  0  0
  5  8  1  0  0  0  0
  8  9  1  0  0  0  0
  8 10  1  0  0  0  0
  8 11  1  0  0  0  0
 11 12  1  0  0  0  0
 11 13  1  0  0  0  0
 11 14  1  0  0  0  0
 14 15  1  0  0  0  0
 14 16  1  0  0  0  0
 14 17  1  0  0  0  0
 17 18  1  0  0  0  0
 17 19  1  0  0  0  0
 17 20  1  0  0  0  0
M  END
> <VConfSearch Rank>
625

> <Conf_Id>
72

> <Delta U+W>
0.000

> <U+W>
-11.778

> <U>
45.772

> <W>
-57.550

> <W(PB)>
-59.511

> <W(SA)>
1.961

> <Valence>
1.299

> <Coulomb>
44.177

> <VdW>
0.297

> <VdW6>
-3.490

> <VdW12>
3.786

> <Bond>
0.096

> <Angle>
0.381

> <Pdih>
0.822

> <Idih>
0.000

> <Tether>
0.000

$$$$
VeraChem MOL file


 20 19  0  0  0  0  0  0  0  0999 V2000     
   19.9763   19.0186   19.4847 N   0  3  0  0  0  0  0  0  0  0  0  0
   19.4906   18.1172   19.5291 H   0  0  0  0  0  0  0  0  0  0  0  0
   19.2619   19.7389   19.3396 H   0  0  0  0  0  0  0  0  0  0  0  0
   20.5572   19.0018   18.6398 H   0  0  0  0  0  0  0  0  0  0  0  0
   20.8002   19.2803   20.7294 C   0  0  0  0  0  0  0  0  0  0  0  0
   21.3115   20.2381   20.6002 H   0  0  0  0  0  0  0  0  0  0  0  0
   21.5570   18.4947   20.8046 H   0  0  0  0  0  0  0  0  0  0  0  0
   19.9578   19.3125   22.0172 C   0  0  0  0  0  0  0  0  0  0  0  0
   19.1891   20.0918   21.9309 H   0  0  0  0  0  0  0  0  0  0  0  0
   19.4358   18.3536   22.1272 H   0  0  0  0  0  0  0  0  0  0  0  0
   20.8378   19.5843   23.2601 C   0  0  0  0  0  0  0  0  0  0  0  0
   21.4099   20.5086   23.0981 H   0  0  0  0  0  0  0  0  0  0  0  0
   21.5777   18.7796   23.3730 H   0  0  0  0  0  0  0  0  0  0  0  0
   20.0275   19.7301   24.5711 C   0  0  0  0  0  0  0  0  0  0  0  0
   20.7129   20.0238   25.3785 H   0  0  0  0  0  0  0  0  0  0  0  0
   19.3024   20.5499   24.4709 H   0  0  0  0  0  0  0  0  0  0  0  0
   19.2935   18.4350   24.9875 C   0  0  0  0  0  0  0  0  0  0  0  0
   19.9928   17.5926   25.0672 H   0  0  0  0  0  0  0  0  0  0  0  0
   18.8115   18.5641   25.9652 H   0  0  0  0  0  0  0  0  0  0  0  0
   18.5106   18.1655   24.2678 H   0  0  0  0  0  0  0  0  0  0  0  0
  1  2  1  0  0  0  0
  1  3  1  0  0  0  0
  1  4  1  0  0  0  0
  1  5  1  0  0  0  0
  5  6  1  0  0  0  0
  5  7  1  0  0  0  0
  5  8  1  0  0  0  0
  8  9  1  0  0  0  0
  8 10  1  0  0  0  0
  8 11  1  0  0  0  0
 11 12  1  0  0  0  0
 11 13  1  0  0  0  0
 11 14  1  0  0  0  0
 14 15  1  0  0  0  0
 14 16  1  0  0  0  0
 14 17  1  0  0  0  0
 17 18  1  0  0  0  0
 17 19  1  0  0  0  0
 17 20  1  0  0  0  0
M  END
> <VConfSearch Rank>
626

> <Conf_Id>
42

> <Delta U+W>
0.508

> <U+W>
-11.270

> <U>
46.486

> <W>
-57.756

> <W(PB)>
-59.705

> <W(SA)>
1.949

> <Valence>
1.806

> <Coulomb>
44.248

> <VdW>
0.433

> <VdW6>
-4.089

> <VdW12>
4.522

> <Bond>
0.131

> <Angle>
0.628

> <Pdih>
1.047

> <Idih>
0.000

> <Tether>
0.000

$$$$
VeraChem MOL file


 20 19  0  0  0  0  0  0  0  0999 V2000     
   22.3825   20.6894   21.2951 N   0  3  0  0  0  0  0  0  0  0  0  0
   22.6583   21.1846   22.1490 H   0  0  0  0  0  0  0  0  0  0  0  0
   22.9821   19.8616   21.2198 H   0  0  0  0  0  0  0  0  0  0  0  0
   22.6201   21.3011   20.5070 H   0  0  0  0  0  0  0  0  0  0  0  0
   20.9116   20.3251   21.3013 C   0  0  0  0  0  0  0  0  0  0  0  0
   20.6824   19.8298   20.3539 H   0  0  0  0  0  0  0  0  0  0  0  0
   20.3345   21.2524   21.3522 H   0  0  0  0  0  0  0  0  0  0  0  0
   20.5204   19.4069   22.4732 C   0  0  0  0  0  0  0  0  0  0  0  0
   21.1178   18.4879   22.4223 H   0  0  0  0  0  0  0  0  0  0  0  0
   20.7669   19.9015   23.4221 H   0  0  0  0  0  0  0  0  0  0  0  0
   19.0124   19.0632   22.4413 C   0  0  0  0  0  0  0  0  0  0  0  0
   18.7745   18.5272   21.5120 H   0  0  0  0  0  0  0  0  0  0  0  0
   18.4332   19.9968   22.4157 H   0  0  0  0  0  0  0  0  0  0  0  0
   18.5437   18.2260   23.6562 C   0  0  0  0  0  0  0  0  0  0  0  0
   18.7581   18.7693   24.5872 H   0  0  0  0  0  0  0  0  0  0  0  0
   17.4510   18.1175   23.6092 H   0  0  0  0  0  0  0  0  0  0  0  0
   19.1817   16.8193   23.7166 C   0  0  0  0  0  0  0  0  0  0  0  0
   20.2642   16.8740   23.8853 H   0  0  0  0  0  0  0  0  0  0  0  0
   18.7492   16.2365   24.5401 H   0  0  0  0  0  0  0  0  0  0  0  0
   19.0057   16.2653   22.7854 H   0  0  0  0  0  0  0  0  0  0  0  0
  1  2  1  0  0  0  0
  1  3  1  0  0  0  0
  1  4  1  0  0  0  0
  1  5  1  0  0  0  0
  5  6  1  0  0  0  0
  5  7  1  0  0  0  0
  5  8  1  0  0  0  0
  8  9  1  0  0  0  0
  8 10  1  0  0  0  0
  8 11  1  0  0  0  0
 11 12  1  0  0  0  0
 11 13  1  0  0  0  0
 11 14  1  0  0  0  0
 14 15  1  0  0  0  0
 14 16  1  0  0  0  0
 14 17  1  0  0  0  0
 17 18  1  0  0  0  0
 17 19  1  0  0  0  0
 17 20  1  0  0  0  0
M  END
> <VConfSearch Rank>
627

> <Conf_Id>
41

> <Delta U+W>
0.515

> <U+W>
-11.263

> <U>
46.486

> <W>
-57.749

> <W(PB)>
-59.685

> <W(SA)>
1.936

> <Valence>
1.806

> <Coulomb>
44.248

> <VdW>
0.433

> <VdW6>
-4.089

> <VdW12>
4.522

> <Bond>
0.131

> <Angle>
0.628

> <Pdih>
1.047

> <Idih>
0.000

> <Tether>
0.000

$$$$
VeraChem MOL file


 20 19  0  0  0  0  0  0  0  0999 V2000     
   22.9063   19.2272   22.6291 N   0  3  0  0  0  0  0  0  0  0  0  0
   23.7743   19.6359   22.9909 H   0  0  0  0  0  0  0  0  0  0  0  0
   22.6746   18.4349   23.2354 H   0  0  0  0  0  0  0  0  0  0  0  0
   23.1202   18.8468   21.7019 H   0  0  0  0  0  0  0  0  0  0  0  0
   21.7839   20.2458   22.5766 C   0  0  0  0  0  0  0  0  0  0  0  0
   22.1206   21.0765   21.9503 H   0  0  0  0  0  0  0  0  0  0  0  0
   21.6230   20.6270   23.5887 H   0  0  0  0  0  0  0  0  0  0  0  0
   20.4606   19.6891   22.0157 C   0  0  0  0  0  0  0  0  0  0  0  0
   19.7590   20.5259   21.9103 H   0  0  0  0  0  0  0  0  0  0  0  0
   20.6291   19.2912   21.0062 H   0  0  0  0  0  0  0  0  0  0  0  0
   19.8394   18.5959   22.9213 C   0  0  0  0  0  0  0  0  0  0  0  0
   19.6526   19.0076   23.9228 H   0  0  0  0  0  0  0  0  0  0  0  0
   20.5597   17.7777   23.0532 H   0  0  0  0  0  0  0  0  0  0  0  0
   18.5281   17.9983   22.3554 C   0  0  0  0  0  0  0  0  0  0  0  0
   18.7128   17.5727   21.3591 H   0  0  0  0  0  0  0  0  0  0  0  0
   18.2190   17.1593   22.9946 H   0  0  0  0  0  0  0  0  0  0  0  0
   17.3684   19.0176   22.2789 C   0  0  0  0  0  0  0  0  0  0  0  0
   17.5774   19.8141   21.5542 H   0  0  0  0  0  0  0  0  0  0  0  0
   16.4414   18.5213   21.9635 H   0  0  0  0  0  0  0  0  0  0  0  0
   17.1842   19.4810   23.2568 H   0  0  0  0  0  0  0  0  0  0  0  0
  1  2  1  0  0  0  0
  1  3  1  0  0  0  0
  1  4  1  0  0  0  0
  1  5  1  0  0  0  0
  5  6  1  0  0  0  0
  5  7  1  0  0  0  0
  5  8  1  0  0  0  0
  8  9  1  0  0  0  0
  8 10  1  0  0  0  0
  8 11  1  0  0  0  0
 11 12  1  0  0  0  0
 11 13  1  0  0  0  0
 11 14  1  0  0  0  0
 14 15  1  0  0  0  0
 14 16  1  0  0  0  0
 14 17  1  0  0  0  0
 17 18  1  0  0  0  0
 17 19  1  0  0  0  0
 17 20  1  0  0  0  0
M  END
> <VConfSearch Rank>
628

> <Conf_Id>
33

> <Delta U+W>
0.703

> <U+W>
-11.075

> <U>
47.080

> <W>
-58.154

> <W(PB)>
-60.053

> <W(SA)>
1.899

> <Valence>
1.943

> <Coulomb>
44.572

> <VdW>
0.565

> <VdW6>
-4.575

> <VdW12>
5.139

> <Bond>
0.158

> <Angle>
0.700

> <Pdih>
1.085

> <Idih>
0.000

> <Tether>
0.000

$$$$
VeraChem MOL file


 20 19  0  0  0  0  0  0  0  0999 V2000     
   20.6076   21.5978   23.6154 N   0  3  0  0  0  0  0  0  0  0  0  0
   21.1093   22.4908   23.6655 H   0  0  0  0  0  0  0  0  0  0  0  0
   19.6637   21.7660   23.9773 H   0  0  0  0  0  0  0  0  0  0  0  0
   21.0720   20.9581   24.2666 H   0  0  0  0  0  0  0  0  0  0  0  0
   20.5811   21.0458   22.2031 C   0  0  0  0  0  0  0  0  0  0  0  0
   21.6141   20.9122   21.8707 H   0  0  0  0  0  0  0  0  0  0  0  0
   20.1130   21.7986   21.5629 H   0  0  0  0  0  0  0  0  0  0  0  0
   19.8161   19.7146   22.0668 C   0  0  0  0  0  0  0  0  0  0  0  0
   18.7841   19.8475   22.4176 H   0  0  0  0  0  0  0  0  0  0  0  0
   19.7557   19.4669   20.9998 H   0  0  0  0  0  0  0  0  0  0  0  0
   20.4941   18.5532   22.8366 C   0  0  0  0  0  0  0  0  0  0  0  0
   20.5850   18.8217   23.8973 H   0  0  0  0  0  0  0  0  0  0  0  0
   21.5184   18.4114   22.4647 H   0  0  0  0  0  0  0  0  0  0  0  0
   19.7201   17.2158   22.7414 C   0  0  0  0  0  0  0  0  0  0  0  0
   20.2025   16.4821   23.4024 H   0  0  0  0  0  0  0  0  0  0  0  0
   18.6988   17.3490   23.1249 H   0  0  0  0  0  0  0  0  0  0  0  0
   19.6665   16.6346   21.3099 C   0  0  0  0  0  0  0  0  0  0  0  0
   20.6749   16.5211   20.8914 H   0  0  0  0  0  0  0  0  0  0  0  0
   19.1927   15.6445   21.3152 H   0  0  0  0  0  0  0  0  0  0  0  0
   19.0837   17.2741   20.6356 H   0  0  0  0  0  0  0  0  0  0  0  0
  1  2  1  0  0  0  0
  1  3  1  0  0  0  0
  1  4  1  0  0  0  0
  1  5  1  0  0  0  0
  5  6  1  0  0  0  0
  5  7  1  0  0  0  0
  5  8  1  0  0  0  0
  8  9  1  0  0  0  0
  8 10  1  0  0  0  0
  8 11  1  0  0  0  0
 11 12  1  0  0  0  0
 11 13  1  0  0  0  0
 11 14  1  0  0  0  0
 14 15  1  0  0  0  0
 14 16  1  0  0  0  0
 14 17  1  0  0  0  0
 17 18  1  0  0  0  0
 17 19  1  0  0  0  0
 17 20  1  0  0  0  0
M  END
> <VConfSearch Rank>
629

> <Conf_Id>
24

> <Delta U+W>
0.847

> <U+W>
-10.931

> <U>
47.080

> <W>
-58.011

> <W(PB)>
-59.914

> <W(SA)>
1.903

> <Valence>
1.943

> <Coulomb>
44.572

> <VdW>
0.565

> <VdW6>
-4.575

> <VdW12>
5.140

> <Bond>
0.158

> <Angle>
0.700

> <Pdih>
1.085

> <Idih>
0.000

> <Tether>
0.000

$$$$
VeraChem MOL file


 20 19  0  0  0  0  0  0  0  0999 V2000     
   18.1762   18.8078   24.3742 N   0  3  0  0  0  0  0  0  0  0  0  0
   18.2825   18.3644   25.2928 H   0  0  0  0  0  0  0  0  0  0  0  0
   18.0913   19.8157   24.5386 H   0  0  0  0  0  0  0  0  0  0  0  0
   17.2805   18.4883   23.9923 H   0  0  0  0  0  0  0  0  0  0  0  0
   19.3338   18.4794   23.4531 C   0  0  0  0  0  0  0  0  0  0  0  0
   19.3829   17.3924   23.3461 H   0  0  0  0  0  0  0  0  0  0  0  0
   20.2538   18.8194   23.9357 H   0  0  0  0  0  0  0  0  0  0  0  0
   19.2052   19.1312   22.0634 C   0  0  0  0  0  0  0  0  0  0  0  0
   18.2585   18.8159   21.6052 H   0  0  0  0  0  0  0  0  0  0  0  0
   19.1467   20.2219   22.1703 H   0  0  0  0  0  0  0  0  0  0  0  0
   20.3697   18.7536   21.1141 C   0  0  0  0  0  0  0  0  0  0  0  0
   20.2092   19.2404   20.1422 H   0  0  0  0  0  0  0  0  0  0  0  0
   20.3349   17.6726   20.9196 H   0  0  0  0  0  0  0  0  0  0  0  0
   21.7818   19.1208   21.6379 C   0  0  0  0  0  0  0  0  0  0  0  0
   22.0035   18.5607   22.5566 H   0  0  0  0  0  0  0  0  0  0  0  0
   22.5259   18.7926   20.8985 H   0  0  0  0  0  0  0  0  0  0  0  0
   21.9681   20.6337   21.8937 C   0  0  0  0  0  0  0  0  0  0  0  0
   23.0073   20.8514   22.1722 H   0  0  0  0  0  0  0  0  0  0  0  0
   21.7323   21.2181   20.9949 H   0  0  0  0  0  0  0  0  0  0  0  0
   21.3271   20.9859   22.7114 H   0  0  0  0  0  0  0  0  0  0  0  0
  1  2  1  0  0  0  0
  1  3  1  0  0  0  0
  1  4  1  0  0  0  0
  1  5  1  0  0  0  0
  5  6  1  0  0  0  0
  5  7  1  0  0  0  0
  5  8  1  0  0  0  0
  8  9  1  0  0  0  0
  8 10  1  0  0  0  0
  8 11  1  0  0  0  0
 11 12  1  0  0  0  0
 11 13  1  0  0  0  0
 11 14  1  0  0  0  0
 14 15  1  0  0  0  0
 14 16  1  0  0  0  0
 14 17  1  0  0  0  0
 17 18  1  0  0  0  0
 17 19  1  0  0  0  0
 17 20  1  0  0  0  0
M  END
> <VConfSearch Rank>
630

> <Conf_Id>
64

> <Delta U+W>
0.707

> <U+W>
-11.070

> <U>
47.077

> <W>
-58.148

> <W(PB)>
-60.054

> <W(SA)>
1.906

> <Valence>
2.039

> <Coulomb>
44.655

> <VdW>
0.383

> <VdW6>
-4.912

> <VdW12>
5.295

> <Bond>
0.159

> <Angle>
0.856

> <Pdih>
1.024

> <Idih>
0.000

> <Tether>
0.000

$$$$
VeraChem MOL file


 20 19  0  0  0  0  0  0  0  0999 V2000     
   22.3169   18.0022   21.0991 N   0  3  0  0  0  0  0  0  0  0  0  0
   22.3093   18.2089   20.0953 H   0  0  0  0  0  0  0  0  0  0  0  0
   22.9690   18.6603   21.5372 H   0  0  0  0  0  0  0  0  0  0  0  0
   22.7217   17.0662   21.2066 H   0  0  0  0  0  0  0  0  0  0  0  0
   20.9309   18.0895   21.7055 C   0  0  0  0  0  0  0  0  0  0  0  0
   21.0106   17.8286   22.7641 H   0  0  0  0  0  0  0  0  0  0  0  0
   20.2994   17.3444   21.2141 H   0  0  0  0  0  0  0  0  0  0  0  0
   20.2939   19.4845   21.5613 C   0  0  0  0  0  0  0  0  0  0  0  0
   20.9317   20.2344   22.0463 H   0  0  0  0  0  0  0  0  0  0  0  0
   20.2568   19.7539   20.4975 H   0  0  0  0  0  0  0  0  0  0  0  0
   18.8600   19.5518   22.1438 C   0  0  0  0  0  0  0  0  0  0  0  0
   18.2074   18.8856   21.5626 H   0  0  0  0  0  0  0  0  0  0  0  0
   18.4633   20.5660   21.9975 H   0  0  0  0  0  0  0  0  0  0  0  0
   18.7482   19.1754   23.6435 C   0  0  0  0  0  0  0  0  0  0  0  0
   17.6927   19.2390   23.9428 H   0  0  0  0  0  0  0  0  0  0  0  0
   19.0411   18.1275   23.7947 H   0  0  0  0  0  0  0  0  0  0  0  0
   19.5841   20.0876   24.5700 C   0  0  0  0  0  0  0  0  0  0  0  0
   19.3245   21.1440   24.4230 H   0  0  0  0  0  0  0  0  0  0  0  0
   19.3981   19.8398   25.6230 H   0  0  0  0  0  0  0  0  0  0  0  0
   20.6595   19.9689   24.3885 H   0  0  0  0  0  0  0  0  0  0  0  0
  1  2  1  0  0  0  0
  1  3  1  0  0  0  0
  1  4  1  0  0  0  0
  1  5  1  0  0  0  0
  5  6  1  0  0  0  0
  5  7  1  0  0  0  0
  5  8  1  0  0  0  0
  8  9  1  0  0  0  0
  8 10  1  0  0  0  0
  8 11  1  0  0  0  0
 11 12  1  0  0  0  0
 11 13  1  0  0  0  0
 11 14  1  0  0  0  0
 14 15  1  0  0  0  0
 14 16  1  0  0  0  0
 14 17  1  0  0  0  0
 17 18  1  0  0  0  0
 17 19  1  0  0  0  0
 17 20  1  0  0  0  0
M  END
> <VConfSearch Rank>
631

> <Conf_Id>
22

> <Delta U+W>
0.731

> <U+W>
-11.047

> <U>
47.078

> <W>
-58.125

> <W(PB)>
-60.031

> <W(SA)>
1.906

> <Valence>
2.039

> <Coulomb>
44.655

> <VdW>
0.383

> <VdW6>
-4.913

> <VdW12>
5.296

> <Bond>
0.159

> <Angle>
0.856

> <Pdih>
1.024

> <Idih>
0.000

> <Tether>
0.000

$$$$
VeraChem MOL file


 20 19  0  0  0  0  0  0  0  0999 V2000     
   17.4315   19.0752   22.3060 N   0  3  0  0  0  0  0  0  0  0  0  0
   17.3046   18.5092   21.4611 H   0  0  0  0  0  0  0  0  0  0  0  0
   17.0009   18.5605   23.0806 H   0  0  0  0  0  0  0  0  0  0  0  0
   16.8818   19.9310   22.1760 H   0  0  0  0  0  0  0  0  0  0  0  0
   18.8925   19.3786   22.5704 C   0  0  0  0  0  0  0  0  0  0  0  0
   18.9516   20.0045   23.4649 H   0  0  0  0  0  0  0  0  0  0  0  0
   19.2716   19.9503   21.7203 H   0  0  0  0  0  0  0  0  0  0  0  0
   19.7468   18.1132   22.7647 C   0  0  0  0  0  0  0  0  0  0  0  0
   19.2840   17.4907   23.5420 H   0  0  0  0  0  0  0  0  0  0  0  0
   19.7333   17.5179   21.8421 H   0  0  0  0  0  0  0  0  0  0  0  0
   21.2129   18.4020   23.1760 C   0  0  0  0  0  0  0  0  0  0  0  0
   21.6962   17.4352   23.3741 H   0  0  0  0  0  0  0  0  0  0  0  0
   21.2385   18.9472   24.1296 H   0  0  0  0  0  0  0  0  0  0  0  0
   22.0554   19.1489   22.1095 C   0  0  0  0  0  0  0  0  0  0  0  0
   23.1088   18.8639   22.2409 H   0  0  0  0  0  0  0  0  0  0  0  0
   21.7764   18.8146   21.1004 H   0  0  0  0  0  0  0  0  0  0  0  0
   21.9674   20.6901   22.2076 C   0  0  0  0  0  0  0  0  0  0  0  0
   20.9599   21.0634   21.9967 H   0  0  0  0  0  0  0  0  0  0  0  0
   22.2574   21.0382   23.2074 H   0  0  0  0  0  0  0  0  0  0  0  0
   22.6473   21.1579   21.4837 H   0  0  0  0  0  0  0  0  0  0  0  0
  1  2  1  0  0  0  0
  1  3  1  0  0  0  0
  1  4  1  0  0  0  0
  1  5  1  0  0  0  0
  5  6  1  0  0  0  0
  5  7  1  0  0  0  0
  5  8  1  0  0  0  0
  8  9  1  0  0  0  0
  8 10  1  0  0  0  0
  8 11  1  0  0  0  0
 11 12  1  0  0  0  0
 11 13  1  0  0  0  0
 11 14  1  0  0  0  0
 14 15  1  0  0  0  0
 14 16  1  0  0  0  0
 14 17  1  0  0  0  0
 17 18  1  0  0  0  0
 17 19  1  0  0  0  0
 17 20  1  0  0  0  0
M  END
> <VConfSearch Rank>
632

> <Conf_Id>
61

> <Delta U+W>
2.669

> <U+W>
-9.108

> <U>
48.916

> <W>
-58.025

> <W(PB)>
-59.935

> <W(SA)>
1.911

> <Valence>
3.785

> <Coulomb>
44.716

> <VdW>
0.415

> <VdW6>
-4.836

> <VdW12>
5.251

> <Bond>
0.175

> <Angle>
1.195

> <Pdih>
2.415

> <Idih>
0.000

> <Tether>
0.000

$$$$
VeraChem MOL file


 20 19  0  0  0  0  0  0  0  0999 V2000     
   18.3386   18.9431   21.0015 N   0  3  0  0  0  0  0  0  0  0  0  0
   17.3291   19.1004   20.9127 H   0  0  0  0  0  0  0  0  0  0  0  0
   18.6495   18.5112   20.1257 H   0  0  0  0  0  0  0  0  0  0  0  0
   18.4707   18.2508   21.7433 H   0  0  0  0  0  0  0  0  0  0  0  0
   19.0847   20.2320   21.2890 C   0  0  0  0  0  0  0  0  0  0  0  0
   18.6741   20.6770   22.1993 H   0  0  0  0  0  0  0  0  0  0  0  0
   18.8777   20.9114   20.4578 H   0  0  0  0  0  0  0  0  0  0  0  0
   20.6123   20.0649   21.4305 C   0  0  0  0  0  0  0  0  0  0  0  0
   20.9902   19.3852   20.6553 H   0  0  0  0  0  0  0  0  0  0  0  0
   21.0747   21.0399   21.2268 H   0  0  0  0  0  0  0  0  0  0  0  0
   21.0830   19.6005   22.8328 C   0  0  0  0  0  0  0  0  0  0  0  0
   20.7462   20.3224   23.5897 H   0  0  0  0  0  0  0  0  0  0  0  0
   22.1813   19.6290   22.8513 H   0  0  0  0  0  0  0  0  0  0  0  0
   20.6138   18.1809   23.2293 C   0  0  0  0  0  0  0  0  0  0  0  0
   19.5250   18.1686   23.3641 H   0  0  0  0  0  0  0  0  0  0  0  0
   20.8528   17.4702   22.4257 H   0  0  0  0  0  0  0  0  0  0  0  0
   21.2766   17.7090   24.5412 C   0  0  0  0  0  0  0  0  0  0  0  0
   20.9261   16.7049   24.8134 H   0  0  0  0  0  0  0  0  0  0  0  0
   22.3690   17.6674   24.4400 H   0  0  0  0  0  0  0  0  0  0  0  0
   21.0358   18.3861   25.3710 H   0  0  0  0  0  0  0  0  0  0  0  0
  1  2  1  0  0  0  0
  1  3  1  0  0  0  0
  1  4  1  0  0  0  0
  1  5  1  0  0  0  0
  5  6  1  0  0  0  0
  5  7  1  0  0  0  0
  5  8  1  0  0  0  0
  8  9  1  0  0  0  0
  8 10  1  0  0  0  0
  8 11  1  0  0  0  0
 11 12  1  0  0  0  0
 11 13  1  0  0  0  0
 11 14  1  0  0  0  0
 14 15  1  0  0  0  0
 14 16  1  0  0  0  0
 14 17  1  0  0  0  0
 17 18  1  0  0  0  0
 17 19  1  0  0  0  0
 17 20  1  0  0  0  0
M  END
> <VConfSearch Rank>
633

> <Conf_Id>
69

> <Delta U+W>
2.811

> <U+W>
-8.967

> <U>
49.216

> <W>
-58.183

> <W(PB)>
-60.064

> <W(SA)>
1.881

> <Valence>
2.929

> <Coulomb>
46.006

> <VdW>
0.281

> <VdW6>
-4.909

> <VdW12>
5.190

> <Bond>
0.156

> <Angle>
0.974

> <Pdih>
1.799

> <Idih>
0.000

> <Tether>
0.000

$$$$
VeraChem MOL file


 20 19  0  0  0  0  0  0  0  0999 V2000     
   18.0689   19.8900   21.5872 N   0  3  0  0  0  0  0  0  0  0  0  0
   18.5978   20.4517   22.2593 H   0  0  0  0  0  0  0  0  0  0  0  0
   18.2352   20.2923   20.6594 H   0  0  0  0  0  0  0  0  0  0  0  0
   17.0744   20.0276   21.7962 H   0  0  0  0  0  0  0  0  0  0  0  0
   18.4570   18.4248   21.6427 C   0  0  0  0  0  0  0  0  0  0  0  0
   17.8384   17.9039   20.9069 H   0  0  0  0  0  0  0  0  0  0  0  0
   18.2052   18.0346   22.6325 H   0  0  0  0  0  0  0  0  0  0  0  0
   19.9433   18.1481   21.3330 C   0  0  0  0  0  0  0  0  0  0  0  0
   20.0263   17.1043   21.0019 H   0  0  0  0  0  0  0  0  0  0  0  0
   20.2710   18.7603   20.4823 H   0  0  0  0  0  0  0  0  0  0  0  0
   20.8998   18.3408   22.5379 C   0  0  0  0  0  0  0  0  0  0  0  0
   21.9020   18.0069   22.2353 H   0  0  0  0  0  0  0  0  0  0  0  0
   20.5924   17.6784   23.3590 H   0  0  0  0  0  0  0  0  0  0  0  0
   20.9936   19.7951   23.0561 C   0  0  0  0  0  0  0  0  0  0  0  0
   21.1952   20.4780   22.2189 H   0  0  0  0  0  0  0  0  0  0  0  0
   20.0380   20.0977   23.5025 H   0  0  0  0  0  0  0  0  0  0  0  0
   22.1028   19.9495   24.1186 C   0  0  0  0  0  0  0  0  0  0  0  0
   23.0866   19.6945   23.7035 H   0  0  0  0  0  0  0  0  0  0  0  0
   22.1498   20.9840   24.4828 H   0  0  0  0  0  0  0  0  0  0  0  0
   21.9165   19.2969   24.9816 H   0  0  0  0  0  0  0  0  0  0  0  0
  1  2  1  0  0  0  0
  1  3  1  0  0  0  0
  1  4  1  0  0  0  0
  1  5  1  0  0  0  0
  5  6  1  0  0  0  0
  5  7  1  0  0  0  0
  5  8  1  0  0  0  0
  8  9  1  0  0  0  0
  8 10  1  0  0  0  0
  8 11  1  0  0  0  0
 11 12  1  0  0  0  0
 11 13  1  0  0  0  0
 11 14  1  0  0  0  0
 14 15  1  0  0  0  0
 14 16  1  0  0  0  0
 14 17  1  0  0  0  0
 17 18  1  0  0  0  0
 17 19  1  0  0  0  0
 17 20  1  0  0  0  0
M  END
> <VConfSearch Rank>
634

> <Conf_Id>
26

> <Delta U+W>
2.809

> <U+W>
-8.969

> <U>
49.216

> <W>
-58.185

> <W(PB)>
-60.088

> <W(SA)>
1.903

> <Valence>
2.929

> <Coulomb>
46.006

> <VdW>
0.281

> <VdW6>
-4.909

> <VdW12>
5.190

> <Bond>
0.156

> <Angle>
0.974

> <Pdih>
1.799

> <Idih>
0.000

> <Tether>
0.000

$$$$
VeraChem MOL file


 20 19  0  0  0  0  0  0  0  0999 V2000     
   21.8834   18.8720   20.8230 N   0  3  0  0  0  0  0  0  0  0  0  0
   22.2901   18.6655   21.7400 H   0  0  0  0  0  0  0  0  0  0  0  0
   21.8802   17.9973   20.2893 H   0  0  0  0  0  0  0  0  0  0  0  0
   22.5276   19.5108   20.3453 H   0  0  0  0  0  0  0  0  0  0  0  0
   20.4922   19.4623   20.9463 C   0  0  0  0  0  0  0  0  0  0  0  0
   20.1345   19.6855   19.9375 H   0  0  0  0  0  0  0  0  0  0  0  0
   20.5702   20.4048   21.4945 H   0  0  0  0  0  0  0  0  0  0  0  0
   19.4848   18.5322   21.6523 C   0  0  0  0  0  0  0  0  0  0  0  0
   18.4933   19.0023   21.6297 H   0  0  0  0  0  0  0  0  0  0  0  0
   19.3886   17.6029   21.0754 H   0  0  0  0  0  0  0  0  0  0  0  0
   19.8642   18.1872   23.1165 C   0  0  0  0  0  0  0  0  0  0  0  0
   20.7754   17.5741   23.1210 H   0  0  0  0  0  0  0  0  0  0  0  0
   19.0770   17.5519   23.5453 H   0  0  0  0  0  0  0  0  0  0  0  0
   20.0803   19.4144   24.0387 C   0  0  0  0  0  0  0  0  0  0  0  0
   20.3641   19.0562   25.0382 H   0  0  0  0  0  0  0  0  0  0  0  0
   20.9283   20.0141   23.6815 H   0  0  0  0  0  0  0  0  0  0  0  0
   18.8284   20.3115   24.1686 C   0  0  0  0  0  0  0  0  0  0  0  0
   17.9607   19.7317   24.5089 H   0  0  0  0  0  0  0  0  0  0  0  0
   19.0036   21.1127   24.8982 H   0  0  0  0  0  0  0  0  0  0  0  0
   18.5720   20.7858   23.2131 H   0  0  0  0  0  0  0  0  0  0  0  0
  1  2  1  0  0  0  0
  1  3  1  0  0  0  0
  1  4  1  0  0  0  0
  1  5  1  0  0  0  0
  5  6  1  0  0  0  0
  5  7  1  0  0  0  0
  5  8  1  0  0  0  0
  8  9  1  0  0  0  0
  8 10  1  0  0  0  0
  8 11  1  0  0  0  0
 11 12  1  0  0  0  0
 11 13  1  0  0  0  0
 11 14  1  0  0  0  0
 14 15  1  0  0  0  0
 14 16  1  0  0  0  0
 14 17  1  0  0  0  0
 17 18  1  0  0  0  0
 17 19  1  0  0  0  0
 17 20  1  0  0  0  0
M  END
> <VConfSearch Rank>
635

> <Conf_Id>
2

> <Delta U+W>
0.994

> <U+W>
-10.784

> <U>
47.562

> <W>
-58.346

> <W(PB)>
-60.221

> <W(SA)>
1.875

> <Valence>
2.149

> <Coulomb>
45.034

> <VdW>
0.378

> <VdW6>
-5.599

> <VdW12>
5.977

> <Bond>
0.185

> <Angle>
0.935

> <Pdih>
1.028

> <Idih>
0.000

> <Tether>
0.000

$$$$
VeraChem MOL file


 20 19  0  0  0  0  0  0  0  0999 V2000     
   18.8064   17.1714   21.8829 N   0  3  0  0  0  0  0  0  0  0  0  0
   17.8371   17.3551   21.6057 H   0  0  0  0  0  0  0  0  0  0  0  0
   19.3971   17.3768   21.0718 H   0  0  0  0  0  0  0  0  0  0  0  0
   18.8801   16.1644   22.0613 H   0  0  0  0  0  0  0  0  0  0  0  0
   19.2113   17.9897   23.0934 C   0  0  0  0  0  0  0  0  0  0  0  0
   20.2386   17.7235   23.3555 H   0  0  0  0  0  0  0  0  0  0  0  0
   18.5632   17.6981   23.9244 H   0  0  0  0  0  0  0  0  0  0  0  0
   19.1087   19.5128   22.8744 C   0  0  0  0  0  0  0  0  0  0  0  0
   18.0669   19.7734   22.6454 H   0  0  0  0  0  0  0  0  0  0  0  0
   19.3442   20.0224   23.8174 H   0  0  0  0  0  0  0  0  0  0  0  0
   20.0291   20.0511   21.7475 C   0  0  0  0  0  0  0  0  0  0  0  0
   19.9135   21.1421   21.6876 H   0  0  0  0  0  0  0  0  0  0  0  0
   19.6842   19.6628   20.7798 H   0  0  0  0  0  0  0  0  0  0  0  0
   21.5321   19.7118   21.9177 C   0  0  0  0  0  0  0  0  0  0  0  0
   21.6828   18.6243   21.8834 H   0  0  0  0  0  0  0  0  0  0  0  0
   22.0832   20.1198   21.0589 H   0  0  0  0  0  0  0  0  0  0  0  0
   22.1454   20.2798   23.2178 C   0  0  0  0  0  0  0  0  0  0  0  0
   21.7037   19.8150   24.1080 H   0  0  0  0  0  0  0  0  0  0  0  0
   23.2261   20.0899   23.2481 H   0  0  0  0  0  0  0  0  0  0  0  0
   21.9934   21.3649   23.2847 H   0  0  0  0  0  0  0  0  0  0  0  0
  1  2  1  0  0  0  0
  1  3  1  0  0  0  0
  1  4  1  0  0  0  0
  1  5  1  0  0  0  0
  5  6  1  0  0  0  0
  5  7  1  0  0  0  0
  5  8  1  0  0  0  0
  8  9  1  0  0  0  0
  8 10  1  0  0  0  0
  8 11  1  0  0  0  0
 11 12  1  0  0  0  0
 11 13  1  0  0  0  0
 11 14  1  0  0  0  0
 14 15  1  0  0  0  0
 14 16  1  0  0  0  0
 14 17  1  0  0  0  0
 17 18  1  0  0  0  0
 17 19  1  0  0  0  0
 17 20  1  0  0  0  0
M  END
> <VConfSearch Rank>
636

> <Conf_Id>
1

> <Delta U+W>
1.032

> <U+W>
-10.746

> <U>
47.562

> <W>
-58.308

> <W(PB)>
-60.184

> <W(SA)>
1.877

> <Valence>
2.149

> <Coulomb>
45.035

> <VdW>
0.378

> <VdW6>
-5.599

> <VdW12>
5.978

> <Bond>
0.185

> <Angle>
0.935

> <Pdih>
1.028

> <Idih>
0.000

> <Tether>
0.000

$$$$
VeraChem MOL file


 20 19  0  0  0  0  0  0  0  0999 V2000     
   19.5914   18.4871   24.6401 N   0  3  0  0  0  0  0  0  0  0  0  0
   20.0943   18.8814   25.4412 H   0  0  0  0  0  0  0  0  0  0  0  0
   18.9393   19.2039   24.3092 H   0  0  0  0  0  0  0  0  0  0  0  0
   19.0260   17.7096   24.9966 H   0  0  0  0  0  0  0  0  0  0  0  0
   20.5389   18.0382   23.5444 C   0  0  0  0  0  0  0  0  0  0  0  0
   19.9420   17.6031   22.7413 H   0  0  0  0  0  0  0  0  0  0  0  0
   21.1703   17.2480   23.9597 H   0  0  0  0  0  0  0  0  0  0  0  0
   21.4370   19.1672   22.9954 C   0  0  0  0  0  0  0  0  0  0  0  0
   22.0114   19.5833   23.8337 H   0  0  0  0  0  0  0  0  0  0  0  0
   22.1778   18.7401   22.3066 H   0  0  0  0  0  0  0  0  0  0  0  0
   20.6732   20.3196   22.2891 C   0  0  0  0  0  0  0  0  0  0  0  0
   21.3098   21.2147   22.3218 H   0  0  0  0  0  0  0  0  0  0  0  0
   19.7676   20.5849   22.8496 H   0  0  0  0  0  0  0  0  0  0  0  0
   20.3184   20.0581   20.8026 C   0  0  0  0  0  0  0  0  0  0  0  0
   19.8684   20.9720   20.3901 H   0  0  0  0  0  0  0  0  0  0  0  0
   21.2386   19.8876   20.2263 H   0  0  0  0  0  0  0  0  0  0  0  0
   19.3424   18.8835   20.5712 C   0  0  0  0  0  0  0  0  0  0  0  0
   18.4604   18.9639   21.2195 H   0  0  0  0  0  0  0  0  0  0  0  0
   18.9937   18.8763   19.5304 H   0  0  0  0  0  0  0  0  0  0  0  0
   19.8284   17.9181   20.7551 H   0  0  0  0  0  0  0  0  0  0  0  0
  1  2  1  0  0  0  0
  1  3  1  0  0  0  0
  1  4  1  0  0  0  0
  1  5  1  0  0  0  0
  5  6  1  0  0  0  0
  5  7  1  0  0  0  0
  5  8  1  0  0  0  0
  8  9  1  0  0  0  0
  8 10  1  0  0  0  0
  8 11  1  0  0  0  0
 11 12  1  0  0  0  0
 11 13  1  0  0  0  0
 11 14  1  0  0  0  0
 14 15  1  0  0  0  0
 14 16  1  0  0  0  0
 14 17  1  0  0  0  0
 17 18  1  0  0  0  0
 17 19  1  0  0  0  0
 17 20  1  0  0  0  0
M  END
> <VConfSearch Rank>
637

> <Conf_Id>
80

> <Delta U+W>
2.920

> <U+W>
-8.857

> <U>
49.434

> <W>
-58.292

> <W(PB)>
-60.170

> <W(SA)>
1.879

> <Valence>
3.798

> <Coulomb>
45.253

> <VdW>
0.384

> <VdW6>
-5.595

> <VdW12>
5.979

> <Bond>
0.198

> <Angle>
1.368

> <Pdih>
2.231

> <Idih>
0.000

> <Tether>
0.000

$$$$
VeraChem MOL file


 20 19  0  0  0  0  0  0  0  0999 V2000     
   22.1922   18.0956   21.9836 N   0  3  0  0  0  0  0  0  0  0  0  0
   22.2431   17.5332   21.1284 H   0  0  0  0  0  0  0  0  0  0  0  0
   23.1526   18.2053   22.3257 H   0  0  0  0  0  0  0  0  0  0  0  0
   21.6878   17.5411   22.6812 H   0  0  0  0  0  0  0  0  0  0  0  0
   21.5252   19.4354   21.7391 C   0  0  0  0  0  0  0  0  0  0  0  0
   22.1410   19.9825   21.0200 H   0  0  0  0  0  0  0  0  0  0  0  0
   21.5327   19.9910   22.6781 H   0  0  0  0  0  0  0  0  0  0  0  0
   20.0861   19.3250   21.1917 C   0  0  0  0  0  0  0  0  0  0  0  0
   19.7229   20.3247   20.9194 H   0  0  0  0  0  0  0  0  0  0  0  0
   20.1212   18.7529   20.2550 H   0  0  0  0  0  0  0  0  0  0  0  0
   19.0744   18.6483   22.1555 C   0  0  0  0  0  0  0  0  0  0  0  0
   19.5274   17.7746   22.6415 H   0  0  0  0  0  0  0  0  0  0  0  0
   18.2480   18.2503   21.5504 H   0  0  0  0  0  0  0  0  0  0  0  0
   18.4559   19.5870   23.2232 C   0  0  0  0  0  0  0  0  0  0  0  0
   17.9209   20.4096   22.7284 H   0  0  0  0  0  0  0  0  0  0  0  0
   17.6944   19.0220   23.7788 H   0  0  0  0  0  0  0  0  0  0  0  0
   19.4695   20.1680   24.2337 C   0  0  0  0  0  0  0  0  0  0  0  0
   20.1145   20.9205   23.7648 H   0  0  0  0  0  0  0  0  0  0  0  0
   18.9435   20.6634   25.0601 H   0  0  0  0  0  0  0  0  0  0  0  0
   20.1012   19.3799   24.6633 H   0  0  0  0  0  0  0  0  0  0  0  0
  1  2  1  0  0  0  0
  1  3  1  0  0  0  0
  1  4  1  0  0  0  0
  1  5  1  0  0  0  0
  5  6  1  0  0  0  0
  5  7  1  0  0  0  0
  5  8  1  0  0  0  0
  8  9  1  0  0  0  0
  8 10  1  0  0  0  0
  8 11  1  0  0  0  0
 11 12  1  0  0  0  0
 11 13  1  0  0  0  0
 11 14  1  0  0  0  0
 14 15  1  0  0  0  0
 14 16  1  0  0  0  0
 14 17  1  0  0  0  0
 17 18  1  0  0  0  0
 17 19  1  0  0  0  0
 17 20  1  0  0  0  0
M  END
> <VConfSearch Rank>
638

> <Conf_Id>
65

> <Delta U+W>
2.949

> <U+W>
-8.829

> <U>
49.435

> <W>
-58.263

> <W(PB)>
-60.125

> <W(SA)>
1.862

> <Valence>
3.797

> <Coulomb>
45.253

> <VdW>
0.384

> <VdW6>
-5.596

> <VdW12>
5.980

> <Bond>
0.198

> <Angle>
1.369

> <Pdih>
2.230

> <Idih>
0.000

> <Tether>
0.000

$$$$
VeraChem MOL file


 20 19  0  0  0  0  0  0  0  0999 V2000     
   19.3271   21.0338   22.2865 N   0  3  0  0  0  0  0  0  0  0  0  0
   19.3725   21.9316   22.7800 H   0  0  0  0  0  0  0  0  0  0  0  0
   20.2719   20.8201   21.9527 H   0  0  0  0  0  0  0  0  0  0  0  0
   18.7370   21.1772   21.4608 H   0  0  0  0  0  0  0  0  0  0  0  0
   18.7914   19.9282   23.1755 C   0  0  0  0  0  0  0  0  0  0  0  0
   17.7868   20.2272   23.4868 H   0  0  0  0  0  0  0  0  0  0  0  0
   19.4178   19.8622   24.0691 H   0  0  0  0  0  0  0  0  0  0  0  0
   18.7156   18.5509   22.4859 C   0  0  0  0  0  0  0  0  0  0  0  0
   17.9659   17.9516   23.0194 H   0  0  0  0  0  0  0  0  0  0  0  0
   18.3317   18.6675   21.4637 H   0  0  0  0  0  0  0  0  0  0  0  0
   20.0423   17.7450   22.4708 C   0  0  0  0  0  0  0  0  0  0  0  0
   19.8306   16.7732   22.0036 H   0  0  0  0  0  0  0  0  0  0  0  0
   20.3520   17.5142   23.4996 H   0  0  0  0  0  0  0  0  0  0  0  0
   21.2134   18.4036   21.6980 C   0  0  0  0  0  0  0  0  0  0  0  0
   21.7972   17.6125   21.2066 H   0  0  0  0  0  0  0  0  0  0  0  0
   20.8305   19.0355   20.8854 H   0  0  0  0  0  0  0  0  0  0  0  0
   22.1736   19.2001   22.6131 C   0  0  0  0  0  0  0  0  0  0  0  0
   21.6557   19.9682   23.1974 H   0  0  0  0  0  0  0  0  0  0  0  0
   22.6749   18.5295   23.3233 H   0  0  0  0  0  0  0  0  0  0  0  0
   22.9535   19.6941   22.0190 H   0  0  0  0  0  0  0  0  0  0  0  0
  1  2  1  0  0  0  0
  1  3  1  0  0  0  0
  1  4  1  0  0  0  0
  1  5  1  0  0  0  0
  5  6  1  0  0  0  0
  5  7  1  0  0  0  0
  5  8  1  0  0  0  0
  8  9  1  0  0  0  0
  8 10  1  0  0  0  0
  8 11  1  0  0  0  0
 11 12  1  0  0  0  0
 11 13  1  0  0  0  0
 11 14  1  0  0  0  0
 14 15  1  0  0  0  0
 14 16  1  0  0  0  0
 14 17  1  0  0  0  0
 17 18  1  0  0  0  0
 17 19  1  0  0  0  0
 17 20  1  0  0  0  0
M  END
> <VConfSearch Rank>
639

> <Conf_Id>
77

> <Delta U+W>
5.366

> <U+W>
-6.412

> <U>
51.542

> <W>
-57.954

> <W(PB)>
-59.811

> <W(SA)>
1.857

> <Valence>
5.347

> <Coulomb>
45.870

> <VdW>
0.325

> <VdW6>
-6.161

> <VdW12>
6.486

> <Bond>
0.201

> <Angle>
1.484

> <Pdih>
3.662

> <Idih>
0.000

> <Tether>
0.000

$$$$
VeraChem MOL file


 20 19  0  0  0  0  0  0  0  0999 V2000     
   20.6909   19.5661   24.2913 N   0  3  0  0  0  0  0  0  0  0  0  0
   20.5904   18.8328   25.0001 H   0  0  0  0  0  0  0  0  0  0  0  0
   21.3914   19.2441   23.6165 H   0  0  0  0  0  0  0  0  0  0  0  0
   21.0784   20.3885   24.7659 H   0  0  0  0  0  0  0  0  0  0  0  0
   19.3710   19.8770   23.6124 C   0  0  0  0  0  0  0  0  0  0  0  0
   19.5214   20.7067   22.9166 H   0  0  0  0  0  0  0  0  0  0  0  0
   18.6811   20.2096   24.3927 H   0  0  0  0  0  0  0  0  0  0  0  0
   18.7503   18.6763   22.8699 C   0  0  0  0  0  0  0  0  0  0  0  0
   18.8535   17.7686   23.4791 H   0  0  0  0  0  0  0  0  0  0  0  0
   17.6705   18.8580   22.7861 H   0  0  0  0  0  0  0  0  0  0  0  0
   19.3005   18.4268   21.4399 C   0  0  0  0  0  0  0  0  0  0  0  0
   19.0738   19.2879   20.7959 H   0  0  0  0  0  0  0  0  0  0  0  0
   18.7365   17.5856   21.0135 H   0  0  0  0  0  0  0  0  0  0  0  0
   20.8097   18.0834   21.3571 C   0  0  0  0  0  0  0  0  0  0  0  0
   21.1400   17.5789   22.2750 H   0  0  0  0  0  0  0  0  0  0  0  0
   20.9586   17.3533   20.5490 H   0  0  0  0  0  0  0  0  0  0  0  0
   21.6969   19.3136   21.0515 C   0  0  0  0  0  0  0  0  0  0  0  0
   22.7589   19.0357   21.0571 H   0  0  0  0  0  0  0  0  0  0  0  0
   21.4669   19.7178   20.0570 H   0  0  0  0  0  0  0  0  0  0  0  0
   21.5551   20.1233   21.7753 H   0  0  0  0  0  0  0  0  0  0  0  0
  1  2  1  0  0  0  0
  1  3  1  0  0  0  0
  1  4  1  0  0  0  0
  1  5  1  0  0  0  0
  5  6  1  0  0  0  0
  5  7  1  0  0  0  0
  5  8  1  0  0  0  0
  8  9  1  0  0  0  0
  8 10  1  0  0  0  0
  8 11  1  0  0  0  0
 11 12  1  0  0  0  0
 11 13  1  0  0  0  0
 11 14  1  0  0  0  0
 14 15  1  0  0  0  0
 14 16  1  0  0  0  0
 14 17  1  0  0  0  0
 17 18  1  0  0  0  0
 17 19  1  0  0  0  0
 17 20  1  0  0  0  0
M  END
> <VConfSearch Rank>
640

> <Conf_Id>
67

> <Delta U+W>
5.353

> <U+W>
-6.425

> <U>
51.541

> <W>
-57.966

> <W(PB)>
-59.821

> <W(SA)>
1.855

> <Valence>
5.347

> <Coulomb>
45.870

> <VdW>
0.325

> <VdW6>
-6.161

> <VdW12>
6.486

> <Bond>
0.201

> <Angle>
1.485

> <Pdih>
3.662

> <Idih>
0.000

> <Tether>
0.000

$$$$
VeraChem MOL file


 20 19  0  0  0  0  0  0  0  0999 V2000     
   22.4594   21.3569   22.6649 N   0  3  0  0  0  0  0  0  0  0  0  0
   22.7470   21.3528   21.6812 H   0  0  0  0  0  0  0  0  0  0  0  0
   22.5468   22.3235   22.9960 H   0  0  0  0  0  0  0  0  0  0  0  0
   23.1486   20.8023   23.1825 H   0  0  0  0  0  0  0  0  0  0  0  0
   21.0522   20.8245   22.8461 C   0  0  0  0  0  0  0  0  0  0  0  0
   20.3706   21.4780   22.2949 H   0  0  0  0  0  0  0  0  0  0  0  0
   20.8024   20.8860   23.9088 H   0  0  0  0  0  0  0  0  0  0  0  0
   20.8867   19.3740   22.3584 C   0  0  0  0  0  0  0  0  0  0  0  0
   21.1540   19.3139   21.2949 H   0  0  0  0  0  0  0  0  0  0  0  0
   21.5843   18.7239   22.9032 H   0  0  0  0  0  0  0  0  0  0  0  0
   19.4402   18.8705   22.5607 C   0  0  0  0  0  0  0  0  0  0  0  0
   18.7446   19.5262   22.0186 H   0  0  0  0  0  0  0  0  0  0  0  0
   19.1744   18.9369   23.6250 H   0  0  0  0  0  0  0  0  0  0  0  0
   19.2621   17.4147   22.0743 C   0  0  0  0  0  0  0  0  0  0  0  0
   19.5251   17.3442   21.0094 H   0  0  0  0  0  0  0  0  0  0  0  0
   19.9547   16.7549   22.6156 H   0  0  0  0  0  0  0  0  0  0  0  0
   17.8155   16.9160   22.2783 C   0  0  0  0  0  0  0  0  0  0  0  0
   17.1016   17.5359   21.7205 H   0  0  0  0  0  0  0  0  0  0  0  0
   17.7090   15.8814   21.9271 H   0  0  0  0  0  0  0  0  0  0  0  0
   17.5347   16.9419   23.3392 H   0  0  0  0  0  0  0  0  0  0  0  0
  1  2  1  0  0  0  0
  1  3  1  0  0  0  0
  1  4  1  0  0  0  0
  1  5  1  0  0  0  0
  5  6  1  0  0  0  0
  5  7  1  0  0  0  0
  5  8  1  0  0  0  0
  8  9  1  0  0  0  0
  8 10  1  0  0  0  0
  8 11  1  0  0  0  0
 11 12  1  0  0  0  0
 11 13  1  0  0  0  0
 11 14  1  0  0  0  0
 14 15  1  0  0  0  0
 14 16  1  0  0  0  0
 14 17  1  0  0  0  0
 17 18  1  0  0  0  0
 17 19  1  0  0  0  0
 17 20  1  0  0  0  0
M  END
> <VConfSearch Rank>
641

> <Conf_Id>
72

> <Delta U+W>
0.000

> <U+W>
-11.778

> <U>
45.772

> <W>
-57.550

> <W(PB)>
-59.511

> <W(SA)>
1.961

> <Valence>
1.299

> <Coulomb>
44.177

> <VdW>
0.297

> <VdW6>
-3.490

> <VdW12>
3.786

> <Bond>
0.096

> <Angle>
0.381

> <Pdih>
0.822

> <Idih>
0.000

> <Tether>
0.000

$$$$
VeraChem MOL file


 20 19  0  0  0  0  0  0  0  0999 V2000     
   17.1881   19.2124   21.7462 N   0  3  0  0  0  0  0  0  0  0  0  0
   17.1916   20.2352   21.6811 H   0  0  0  0  0  0  0  0  0  0  0  0
   17.2848   18.8495   20.7926 H   0  0  0  0  0  0  0  0  0  0  0  0
   16.2563   18.9387   22.0752 H   0  0  0  0  0  0  0  0  0  0  0  0
   18.2816   18.6991   22.6613 C   0  0  0  0  0  0  0  0  0  0  0  0
   18.1992   17.6097   22.7073 H   0  0  0  0  0  0  0  0  0  0  0  0
   18.0997   19.0995   23.6623 H   0  0  0  0  0  0  0  0  0  0  0  0
   19.6949   19.0923   22.1954 C   0  0  0  0  0  0  0  0  0  0  0  0
   19.8674   18.7018   21.1837 H   0  0  0  0  0  0  0  0  0  0  0  0
   19.7606   20.1860   22.1359 H   0  0  0  0  0  0  0  0  0  0  0  0
   20.7776   18.5462   23.1560 C   0  0  0  0  0  0  0  0  0  0  0  0
   20.6472   17.4601   23.2617 H   0  0  0  0  0  0  0  0  0  0  0  0
   20.6328   18.9732   24.1581 H   0  0  0  0  0  0  0  0  0  0  0  0
   22.2240   18.8243   22.6790 C   0  0  0  0  0  0  0  0  0  0  0  0
   22.9230   18.3159   23.3578 H   0  0  0  0  0  0  0  0  0  0  0  0
   22.3806   18.3781   21.6869 H   0  0  0  0  0  0  0  0  0  0  0  0
   22.5782   20.3283   22.6344 C   0  0  0  0  0  0  0  0  0  0  0  0
   22.4033   20.8045   23.6078 H   0  0  0  0  0  0  0  0  0  0  0  0
   23.6370   20.4660   22.3794 H   0  0  0  0  0  0  0  0  0  0  0  0
   21.9862   20.8602   21.8795 H   0  0  0  0  0  0  0  0  0  0  0  0
  1  2  1  0  0  0  0
  1  3  1  0  0  0  0
  1  4  1  0  0  0  0
  1  5  1  0  0  0  0
  5  6  1  0  0  0  0
  5  7  1  0  0  0  0
  5  8  1  0  0  0  0
  8  9  1  0  0  0  0
  8 10  1  0  0  0  0
  8 11  1  0  0  0  0
 11 12  1  0  0  0  0
 11 13  1  0  0  0  0
 11 14  1  0  0  0  0
 14 15  1  0  0  0  0
 14 16  1  0  0  0  0
 14 17  1  0  0  0  0
 17 18  1  0  0  0  0
 17 19  1  0  0  0  0
 17 20  1  0  0  0  0
M  END
> <VConfSearch Rank>
642

> <Conf_Id>
42

> <Delta U+W>
0.508

> <U+W>
-11.270

> <U>
46.486

> <W>
-57.756

> <W(PB)>
-59.705

> <W(SA)>
1.949

> <Valence>
1.806

> <Coulomb>
44.248

> <VdW>
0.433

> <VdW6>
-4.089

> <VdW12>
4.522

> <Bond>
0.131

> <Angle>
0.628

> <Pdih>
1.047

> <Idih>
0.000

> <Tether>
0.000

$$$$
VeraChem MOL file


 20 19  0  0  0  0  0  0  0  0999 V2000     
   19.8837   20.6138   25.0369 N   0  3  0  0  0  0  0  0  0  0  0  0
   19.0869   20.0992   25.4249 H   0  0  0  0  0  0  0  0  0  0  0  0
   20.7333   20.1851   25.4174 H   0  0  0  0  0  0  0  0  0  0  0  0
   19.8358   21.5655   25.4158 H   0  0  0  0  0  0  0  0  0  0  0  0
   19.8769   20.6101   23.5215 C   0  0  0  0  0  0  0  0  0  0  0  0
   20.7322   21.1987   23.1786 H   0  0  0  0  0  0  0  0  0  0  0  0
   18.9621   21.1070   23.1871 H   0  0  0  0  0  0  0  0  0  0  0  0
   19.9474   19.1953   22.9193 C   0  0  0  0  0  0  0  0  0  0  0  0
   20.8595   18.7001   23.2756 H   0  0  0  0  0  0  0  0  0  0  0  0
   19.0955   18.6030   23.2788 H   0  0  0  0  0  0  0  0  0  0  0  0
   19.9356   19.2393   21.3730 C   0  0  0  0  0  0  0  0  0  0  0  0
   20.8134   19.7929   21.0118 H   0  0  0  0  0  0  0  0  0  0  0  0
   19.0550   19.8049   21.0380 H   0  0  0  0  0  0  0  0  0  0  0  0
   19.9006   17.8383   20.7153 C   0  0  0  0  0  0  0  0  0  0  0  0
   19.0110   17.2899   21.0555 H   0  0  0  0  0  0  0  0  0  0  0  0
   19.7880   17.9615   19.6289 H   0  0  0  0  0  0  0  0  0  0  0  0
   21.1674   16.9971   20.9924 C   0  0  0  0  0  0  0  0  0  0  0  0
   21.2593   16.7440   22.0559 H   0  0  0  0  0  0  0  0  0  0  0  0
   21.1326   16.0541   20.4315 H   0  0  0  0  0  0  0  0  0  0  0  0
   22.0740   17.5354   20.6868 H   0  0  0  0  0  0  0  0  0  0  0  0
  1  2  1  0  0  0  0
  1  3  1  0  0  0  0
  1  4  1  0  0  0  0
  1  5  1  0  0  0  0
  5  6  1  0  0  0  0
  5  7  1  0  0  0  0
  5  8  1  0  0  0  0
  8  9  1  0  0  0  0
  8 10  1  0  0  0  0
  8 11  1  0  0  0  0
 11 12  1  0  0  0  0
 11 13  1  0  0  0  0
 11 14  1  0  0  0  0
 14 15  1  0  0  0  0
 14 16  1  0  0  0  0
 14 17  1  0  0  0  0
 17 18  1  0  0  0  0
 17 19  1  0  0  0  0
 17 20  1  0  0  0  0
M  END
> <VConfSearch Rank>
643

> <Conf_Id>
41

> <Delta U+W>
0.515

> <U+W>
-11.263

> <U>
46.486

> <W>
-57.749

> <W(PB)>
-59.685

> <W(SA)>
1.936

> <Valence>
1.806

> <Coulomb>
44.248

> <VdW>
0.433

> <VdW6>
-4.089

> <VdW12>
4.522

> <Bond>
0.131

> <Angle>
0.628

> <Pdih>
1.047

> <Idih>
0.000

> <Tether>
0.000

$$$$
VeraChem MOL file


 20 19  0  0  0  0  0  0  0  0999 V2000     
   21.8093   19.7086   24.5964 N   0  3  0  0  0  0  0  0  0  0  0  0
   21.9859   20.1314   25.5138 H   0  0  0  0  0  0  0  0  0  0  0  0
   21.5685   18.7270   24.7620 H   0  0  0  0  0  0  0  0  0  0  0  0
   22.6984   19.7207   24.0870 H   0  0  0  0  0  0  0  0  0  0  0  0
   20.7156   20.4393   23.8414 C   0  0  0  0  0  0  0  0  0  0  0  0
   21.0235   21.4838   23.7425 H   0  0  0  0  0  0  0  0  0  0  0  0
   19.8058   20.4093   24.4470 H   0  0  0  0  0  0  0  0  0  0  0  0
   20.4270   19.8590   22.4428 C   0  0  0  0  0  0  0  0  0  0  0  0
   19.7135   20.5244   21.9411 H   0  0  0  0  0  0  0  0  0  0  0  0
   21.3465   19.8744   21.8429 H   0  0  0  0  0  0  0  0  0  0  0  0
   19.8522   18.4211   22.4984 C   0  0  0  0  0  0  0  0  0  0  0  0
   18.9205   18.4176   23.0810 H   0  0  0  0  0  0  0  0  0  0  0  0
   20.5536   17.7675   23.0337 H   0  0  0  0  0  0  0  0  0  0  0  0
   19.5904   17.8074   21.1014 C   0  0  0  0  0  0  0  0  0  0  0  0
   20.5227   17.7961   20.5195 H   0  0  0  0  0  0  0  0  0  0  0  0
   19.2954   16.7563   21.2283 H   0  0  0  0  0  0  0  0  0  0  0  0
   18.4876   18.5395   20.3029 C   0  0  0  0  0  0  0  0  0  0  0  0
   18.7889   19.5613   20.0410 H   0  0  0  0  0  0  0  0  0  0  0  0
   18.2759   18.0089   19.3656 H   0  0  0  0  0  0  0  0  0  0  0  0
   17.5531   18.5921   20.8764 H   0  0  0  0  0  0  0  0  0  0  0  0
  1  2  1  0  0  0  0
  1  3  1  0  0  0  0
  1  4  1  0  0  0  0
  1  5  1  0  0  0  0
  5  6  1  0  0  0  0
  5  7  1  0  0  0  0
  5  8  1  0  0  0  0
  8  9  1  0  0  0  0
  8 10  1  0  0  0  0
  8 11  1  0  0  0  0
 11 12  1  0  0  0  0
 11 13  1  0  0  0  0
 11 14  1  0  0  0  0
 14 15  1  0  0  0  0
 14 16  1  0  0  0  0
 14 17  1  0  0  0  0
 17 18  1  0  0  0  0
 17 19  1  0  0  0  0
 17 20  1  0  0  0  0
M  END
> <VConfSearch Rank>
644

> <Conf_Id>
33

> <Delta U+W>
0.703

> <U+W>
-11.075

> <U>
47.080

> <W>
-58.154

> <W(PB)>
-60.053

> <W(SA)>
1.899

> <Valence>
1.943

> <Coulomb>
44.572

> <VdW>
0.565

> <VdW6>
-4.575

> <VdW12>
5.139

> <Bond>
0.158

> <Angle>
0.700

> <Pdih>
1.085

> <Idih>
0.000

> <Tether>
0.000

$$$$
VeraChem MOL file


 20 19  0  0  0  0  0  0  0  0999 V2000     
   17.9654   19.7853   20.8965 N   0  3  0  0  0  0  0  0  0  0  0  0
   17.3801   20.4704   20.4070 H   0  0  0  0  0  0  0  0  0  0  0  0
   17.8870   18.9036   20.3800 H   0  0  0  0  0  0  0  0  0  0  0  0
   17.5423   19.6355   21.8171 H   0  0  0  0  0  0  0  0  0  0  0  0
   19.4049   20.2503   21.0049 C   0  0  0  0  0  0  0  0  0  0  0  0
   19.4152   21.2018   21.5434 H   0  0  0  0  0  0  0  0  0  0  0  0
   19.7713   20.4301   19.9905 H   0  0  0  0  0  0  0  0  0  0  0  0
   20.3349   19.2445   21.7115 C   0  0  0  0  0  0  0  0  0  0  0  0
   20.3090   18.2847   21.1786 H   0  0  0  0  0  0  0  0  0  0  0  0
   21.3626   19.6202   21.6318 H   0  0  0  0  0  0  0  0  0  0  0  0
   19.9679   19.0351   23.2023 C   0  0  0  0  0  0  0  0  0  0  0  0
   18.9270   18.6940   23.2780 H   0  0  0  0  0  0  0  0  0  0  0  0
   20.0179   19.9955   23.7338 H   0  0  0  0  0  0  0  0  0  0  0  0
   20.8687   18.0002   23.9195 C   0  0  0  0  0  0  0  0  0  0  0  0
   20.4719   17.8285   24.9300 H   0  0  0  0  0  0  0  0  0  0  0  0
   20.8115   17.0336   23.3995 H   0  0  0  0  0  0  0  0  0  0  0  0
   22.3455   18.4425   24.0345 C   0  0  0  0  0  0  0  0  0  0  0  0
   22.4278   19.4220   24.5232 H   0  0  0  0  0  0  0  0  0  0  0  0
   22.9169   17.7208   24.6324 H   0  0  0  0  0  0  0  0  0  0  0  0
   22.8258   18.5072   23.0504 H   0  0  0  0  0  0  0  0  0  0  0  0
  1  2  1  0  0  0  0
  1  3  1  0  0  0  0
  1  4  1  0  0  0  0
  1  5  1  0  0  0  0
  5  6  1  0  0  0  0
  5  7  1  0  0  0  0
  5  8  1  0  0  0  0
  8  9  1  0  0  0  0
  8 10  1  0  0  0  0
  8 11  1  0  0  0  0
 11 12  1  0  0  0  0
 11 13  1  0  0  0  0
 11 14  1  0  0  0  0
 14 15  1  0  0  0  0
 14 16  1  0  0  0  0
 14 17  1  0  0  0  0
 17 18  1  0  0  0  0
 17 19  1  0  0  0  0
 17 20  1  0  0  0  0
M  END
> <VConfSearch Rank>
645

> <Conf_Id>
24

> <Delta U+W>
0.847

> <U+W>
-10.931

> <U>
47.080

> <W>
-58.011

> <W(PB)>
-59.914

> <W(SA)>
1.903

> <Valence>
1.943

> <Coulomb>
44.572

> <VdW>
0.565

> <VdW6>
-4.575

> <VdW12>
5.140

> <Bond>
0.158

> <Angle>
0.700

> <Pdih>
1.085

> <Idih>
0.000

> <Tether>
0.000

$$$$
VeraChem MOL file


 20 19  0  0  0  0  0  0  0  0999 V2000     
   20.5769   16.5851   23.1701 N   0  3  0  0  0  0  0  0  0  0  0  0
   21.4452   16.0529   23.0506 H   0  0  0  0  0  0  0  0  0  0  0  0
   20.4964   16.8026   24.1683 H   0  0  0  0  0  0  0  0  0  0  0  0
   19.8059   15.9515   22.9368 H   0  0  0  0  0  0  0  0  0  0  0  0
   20.5605   17.8357   22.3146 C   0  0  0  0  0  0  0  0  0  0  0  0
   20.6790   17.5328   21.2707 H   0  0  0  0  0  0  0  0  0  0  0  0
   21.4227   18.4461   22.5956 H   0  0  0  0  0  0  0  0  0  0  0  0
   19.2684   18.6594   22.4713 C   0  0  0  0  0  0  0  0  0  0  0  0
   18.4063   18.0248   22.2267 H   0  0  0  0  0  0  0  0  0  0  0  0
   19.1437   18.9562   23.5205 H   0  0  0  0  0  0  0  0  0  0  0  0
   19.2414   19.9116   21.5596 C   0  0  0  0  0  0  0  0  0  0  0  0
   18.2920   20.4432   21.7125 H   0  0  0  0  0  0  0  0  0  0  0  0
   19.2405   19.5880   20.5094 H   0  0  0  0  0  0  0  0  0  0  0  0
   20.4161   20.8997   21.7759 C   0  0  0  0  0  0  0  0  0  0  0  0
   21.3700   20.4162   21.5250 H   0  0  0  0  0  0  0  0  0  0  0  0
   20.3066   21.7341   21.0689 H   0  0  0  0  0  0  0  0  0  0  0  0
   20.4837   21.4693   23.2112 C   0  0  0  0  0  0  0  0  0  0  0  0
   21.2711   22.2304   23.2861 H   0  0  0  0  0  0  0  0  0  0  0  0
   19.5335   21.9406   23.4942 H   0  0  0  0  0  0  0  0  0  0  0  0
   20.7115   20.6861   23.9450 H   0  0  0  0  0  0  0  0  0  0  0  0
  1  2  1  0  0  0  0
  1  3  1  0  0  0  0
  1  4  1  0  0  0  0
  1  5  1  0  0  0  0
  5  6  1  0  0  0  0
  5  7  1  0  0  0  0
  5  8  1  0  0  0  0
  8  9  1  0  0  0  0
  8 10  1  0  0  0  0
  8 11  1  0  0  0  0
 11 12  1  0  0  0  0
 11 13  1  0  0  0  0
 11 14  1  0  0  0  0
 14 15  1  0  0  0  0
 14 16  1  0  0  0  0
 14 17  1  0  0  0  0
 17 18  1  0  0  0  0
 17 19  1  0  0  0  0
 17 20  1  0  0  0  0
M  END
> <VConfSearch Rank>
646

> <Conf_Id>
64

> <Delta U+W>
0.707

> <U+W>
-11.070

> <U>
47.077

> <W>
-58.148

> <W(PB)>
-60.054

> <W(SA)>
1.906

> <Valence>
2.039

> <Coulomb>
44.655

> <VdW>
0.383

> <VdW6>
-4.912

> <VdW12>
5.295

> <Bond>
0.159

> <Angle>
0.856

> <Pdih>
1.024

> <Idih>
0.000

> <Tether>
0.000

$$$$
VeraChem MOL file


 20 19  0  0  0  0  0  0  0  0999 V2000     
   22.4687   18.2883   23.8312 N   0  3  0  0  0  0  0  0  0  0  0  0
   23.1972   17.8862   23.2329 H   0  0  0  0  0  0  0  0  0  0  0  0
   22.7288   19.2635   24.0085 H   0  0  0  0  0  0  0  0  0  0  0  0
   22.5193   17.7986   24.7307 H   0  0  0  0  0  0  0  0  0  0  0  0
   21.0940   18.1735   23.2040 C   0  0  0  0  0  0  0  0  0  0  0  0
   20.3685   18.5921   23.9064 H   0  0  0  0  0  0  0  0  0  0  0  0
   20.8707   17.1116   23.0708 H   0  0  0  0  0  0  0  0  0  0  0  0
   20.9839   18.8996   21.8500 C   0  0  0  0  0  0  0  0  0  0  0  0
   21.2168   19.9641   21.9810 H   0  0  0  0  0  0  0  0  0  0  0  0
   21.7442   18.5004   21.1657 H   0  0  0  0  0  0  0  0  0  0  0  0
   19.5891   18.7390   21.1953 C   0  0  0  0  0  0  0  0  0  0  0  0
   19.4270   17.6786   20.9572 H   0  0  0  0  0  0  0  0  0  0  0  0
   19.5844   19.2687   20.2326 H   0  0  0  0  0  0  0  0  0  0  0  0
   18.4035   19.2436   22.0572 C   0  0  0  0  0  0  0  0  0  0  0  0
   17.4692   19.0644   21.5067 H   0  0  0  0  0  0  0  0  0  0  0  0
   18.3267   18.6529   22.9802 H   0  0  0  0  0  0  0  0  0  0  0  0
   18.4942   20.7462   22.4078 C   0  0  0  0  0  0  0  0  0  0  0  0
   18.5926   21.3579   21.5016 H   0  0  0  0  0  0  0  0  0  0  0  0
   17.5894   21.0729   22.9364 H   0  0  0  0  0  0  0  0  0  0  0  0
   19.3510   20.9566   23.0599 H   0  0  0  0  0  0  0  0  0  0  0  0
  1  2  1  0  0  0  0
  1  3  1  0  0  0  0
  1  4  1  0  0  0  0
  1  5  1  0  0  0  0
  5  6  1  0  0  0  0
  5  7  1  0  0  0  0
  5  8  1  0  0  0  0
  8  9  1  0  0  0  0
  8 10  1  0  0  0  0
  8 11  1  0  0  0  0
 11 12  1  0  0  0  0
 11 13  1  0  0  0  0
 11 14  1  0  0  0  0
 14 15  1  0  0  0  0
 14 16  1  0  0  0  0
 14 17  1  0  0  0  0
 17 18  1  0  0  0  0
 17 19  1  0  0  0  0
 17 20  1  0  0  0  0
M  END
> <VConfSearch Rank>
647

> <Conf_Id>
22

> <Delta U+W>
0.731

> <U+W>
-11.047

> <U>
47.078

> <W>
-58.125

> <W(PB)>
-60.031

> <W(SA)>
1.906

> <Valence>
2.039

> <Coulomb>
44.655

> <VdW>
0.383

> <VdW6>
-4.913

> <VdW12>
5.296

> <Bond>
0.159

> <Angle>
0.856

> <Pdih>
1.024

> <Idih>
0.000

> <Tether>
0.000

$$$$
VeraChem MOL file


 20 19  0  0  0  0  0  0  0  0999 V2000     
   19.5295   20.8055   24.6387 N   0  3  0  0  0  0  0  0  0  0  0  0
   18.7400   20.2997   25.0525 H   0  0  0  0  0  0  0  0  0  0  0  0
   20.2693   20.8403   25.3471 H   0  0  0  0  0  0  0  0  0  0  0  0
   19.2178   21.7705   24.4870 H   0  0  0  0  0  0  0  0  0  0  0  0
   20.0057   20.1585   23.3537 C   0  0  0  0  0  0  0  0  0  0  0  0
   20.8258   20.7616   22.9549 H   0  0  0  0  0  0  0  0  0  0  0  0
   19.1770   20.1847   22.6424 H   0  0  0  0  0  0  0  0  0  0  0  0
   20.4756   18.7057   23.5468 C   0  0  0  0  0  0  0  0  0  0  0  0
   21.2239   18.6806   24.3500 H   0  0  0  0  0  0  0  0  0  0  0  0
   19.6324   18.0913   23.8895 H   0  0  0  0  0  0  0  0  0  0  0  0
   21.0981   18.0726   22.2765 C   0  0  0  0  0  0  0  0  0  0  0  0
   21.4769   17.0794   22.5549 H   0  0  0  0  0  0  0  0  0  0  0  0
   21.9790   18.6477   21.9593 H   0  0  0  0  0  0  0  0  0  0  0  0
   20.1180   17.8953   21.0877 C   0  0  0  0  0  0  0  0  0  0  0  0
   20.4566   17.0397   20.4866 H   0  0  0  0  0  0  0  0  0  0  0  0
   19.1173   17.6283   21.4551 H   0  0  0  0  0  0  0  0  0  0  0  0
   20.0360   19.1257   20.1538 C   0  0  0  0  0  0  0  0  0  0  0  0
   19.6181   20.0033   20.6579 H   0  0  0  0  0  0  0  0  0  0  0  0
   21.0282   19.3944   19.7685 H   0  0  0  0  0  0  0  0  0  0  0  0
   19.3934   18.9076   19.2910 H   0  0  0  0  0  0  0  0  0  0  0  0
  1  2  1  0  0  0  0
  1  3  1  0  0  0  0
  1  4  1  0  0  0  0
  1  5  1  0  0  0  0
  5  6  1  0  0  0  0
  5  7  1  0  0  0  0
  5  8  1  0  0  0  0
  8  9  1  0  0  0  0
  8 10  1  0  0  0  0
  8 11  1  0  0  0  0
 11 12  1  0  0  0  0
 11 13  1  0  0  0  0
 11 14  1  0  0  0  0
 14 15  1  0  0  0  0
 14 16  1  0  0  0  0
 14 17  1  0  0  0  0
 17 18  1  0  0  0  0
 17 19  1  0  0  0  0
 17 20  1  0  0  0  0
M  END
> <VConfSearch Rank>
648

> <Conf_Id>
61

> <Delta U+W>
2.669

> <U+W>
-9.108

> <U>
48.916

> <W>
-58.025

> <W(PB)>
-59.935

> <W(SA)>
1.911

> <Valence>
3.785

> <Coulomb>
44.716

> <VdW>
0.415

> <VdW6>
-4.836

> <VdW12>
5.251

> <Bond>
0.175

> <Angle>
1.195

> <Pdih>
2.415

> <Idih>
0.000

> <Tether>
0.000

$$$$
VeraChem MOL file


 20 19  0  0  0  0  0  0  0  0999 V2000     
   21.2045   19.3175   20.4123 N   0  3  0  0  0  0  0  0  0  0  0  0
   22.0591   19.6526   19.9552 H   0  0  0  0  0  0  0  0  0  0  0  0
   20.5505   19.0604   19.6663 H   0  0  0  0  0  0  0  0  0  0  0  0
   20.7976   20.1138   20.9095 H   0  0  0  0  0  0  0  0  0  0  0  0
   21.4846   18.1517   21.3413 C   0  0  0  0  0  0  0  0  0  0  0  0
   22.2287   18.4644   22.0787 H   0  0  0  0  0  0  0  0  0  0  0  0
   21.9257   17.3583   20.7318 H   0  0  0  0  0  0  0  0  0  0  0  0
   20.2367   17.5962   22.0594 C   0  0  0  0  0  0  0  0  0  0  0  0
   19.3943   17.5354   21.3576 H   0  0  0  0  0  0  0  0  0  0  0  0
   20.4556   16.5619   22.3565 H   0  0  0  0  0  0  0  0  0  0  0  0
   19.8239   18.3783   23.3328 C   0  0  0  0  0  0  0  0  0  0  0  0
   20.6580   18.3795   24.0481 H   0  0  0  0  0  0  0  0  0  0  0  0
   19.0051   17.8305   23.8198 H   0  0  0  0  0  0  0  0  0  0  0  0
   19.3659   19.8325   23.0722 C   0  0  0  0  0  0  0  0  0  0  0  0
   20.2133   20.4373   22.7259 H   0  0  0  0  0  0  0  0  0  0  0  0
   18.6057   19.8485   22.2786 H   0  0  0  0  0  0  0  0  0  0  0  0
   18.7864   20.4829   24.3466 C   0  0  0  0  0  0  0  0  0  0  0  0
   18.4754   21.5166   24.1474 H   0  0  0  0  0  0  0  0  0  0  0  0
   17.9085   19.9318   24.7081 H   0  0  0  0  0  0  0  0  0  0  0  0
   19.5317   20.5050   25.1525 H   0  0  0  0  0  0  0  0  0  0  0  0
  1  2  1  0  0  0  0
  1  3  1  0  0  0  0
  1  4  1  0  0  0  0
  1  5  1  0  0  0  0
  5  6  1  0  0  0  0
  5  7  1  0  0  0  0
  5  8  1  0  0  0  0
  8  9  1  0  0  0  0
  8 10  1  0  0  0  0
  8 11  1  0  0  0  0
 11 12  1  0  0  0  0
 11 13  1  0  0  0  0
 11 14  1  0  0  0  0
 14 15  1  0  0  0  0
 14 16  1  0  0  0  0
 14 17  1  0  0  0  0
 17 18  1  0  0  0  0
 17 19  1  0  0  0  0
 17 20  1  0  0  0  0
M  END
> <VConfSearch Rank>
649

> <Conf_Id>
69

> <Delta U+W>
2.811

> <U+W>
-8.967

> <U>
49.216

> <W>
-58.183

> <W(PB)>
-60.064

> <W(SA)>
1.881

> <Valence>
2.929

> <Coulomb>
46.006

> <VdW>
0.281

> <VdW6>
-4.909

> <VdW12>
5.190

> <Bond>
0.156

> <Angle>
0.974

> <Pdih>
1.799

> <Idih>
0.000

> <Tether>
0.000

$$$$
VeraChem MOL file


 20 19  0  0  0  0  0  0  0  0999 V2000     
   20.8092   16.9971   22.5721 N   0  3  0  0  0  0  0  0  0  0  0  0
   21.3341   17.7003   22.0457 H   0  0  0  0  0  0  0  0  0  0  0  0
   21.2816   16.8793   23.4739 H   0  0  0  0  0  0  0  0  0  0  0  0
   20.9061   16.1092   22.0682 H   0  0  0  0  0  0  0  0  0  0  0  0
   19.3541   17.3882   22.7462 C   0  0  0  0  0  0  0  0  0  0  0  0
   18.8722   16.5804   23.3035 H   0  0  0  0  0  0  0  0  0  0  0  0
   18.8872   17.4429   21.7591 H   0  0  0  0  0  0  0  0  0  0  0  0
   19.1382   18.7162   23.5021 C   0  0  0  0  0  0  0  0  0  0  0  0
   18.1236   18.6999   23.9219 H   0  0  0  0  0  0  0  0  0  0  0  0
   19.8184   18.7747   24.3622 H   0  0  0  0  0  0  0  0  0  0  0  0
   19.2676   19.9868   22.6233 C   0  0  0  0  0  0  0  0  0  0  0  0
   18.9819   20.8548   23.2335 H   0  0  0  0  0  0  0  0  0  0  0  0
   18.5400   19.9390   21.8012 H   0  0  0  0  0  0  0  0  0  0  0  0
   20.6825   20.2264   22.0463 C   0  0  0  0  0  0  0  0  0  0  0  0
   21.4291   20.1684   22.8509 H   0  0  0  0  0  0  0  0  0  0  0  0
   20.9278   19.4457   21.3154 H   0  0  0  0  0  0  0  0  0  0  0  0
   20.7878   21.6007   21.3512 C   0  0  0  0  0  0  0  0  0  0  0  0
   20.5884   22.4175   22.0572 H   0  0  0  0  0  0  0  0  0  0  0  0
   21.7941   21.7510   20.9393 H   0  0  0  0  0  0  0  0  0  0  0  0
   20.0700   21.6809   20.5244 H   0  0  0  0  0  0  0  0  0  0  0  0
  1  2  1  0  0  0  0
  1  3  1  0  0  0  0
  1  4  1  0  0  0  0
  1  5  1  0  0  0  0
  5  6  1  0  0  0  0
  5  7  1  0  0  0  0
  5  8  1  0  0  0  0
  8  9  1  0  0  0  0
  8 10  1  0  0  0  0
  8 11  1  0  0  0  0
 11 12  1  0  0  0  0
 11 13  1  0  0  0  0
 11 14  1  0  0  0  0
 14 15  1  0  0  0  0
 14 16  1  0  0  0  0
 14 17  1  0  0  0  0
 17 18  1  0  0  0  0
 17 19  1  0  0  0  0
 17 20  1  0  0  0  0
M  END
> <VConfSearch Rank>
650

> <Conf_Id>
26

> <Delta U+W>
2.809

> <U+W>
-8.969

> <U>
49.216

> <W>
-58.185

> <W(PB)>
-60.088

> <W(SA)>
1.903

> <Valence>
2.929

> <Coulomb>
46.006

> <VdW>
0.281

> <VdW6>
-4.909

> <VdW12>
5.190

> <Bond>
0.156

> <Angle>
0.974

> <Pdih>
1.799

> <Idih>
0.000

> <Tether>
0.000

$$$$
VeraChem MOL file


 20 19  0  0  0  0  0  0  0  0999 V2000     
   21.4823   17.4511   23.4923 N   0  3  0  0  0  0  0  0  0  0  0  0
   21.1609   17.0838   22.5919 H   0  0  0  0  0  0  0  0  0  0  0  0
   22.4999   17.5551   23.4309 H   0  0  0  0  0  0  0  0  0  0  0  0
   21.2982   16.7277   24.1952 H   0  0  0  0  0  0  0  0  0  0  0  0
   20.8016   18.7608   23.8393 C   0  0  0  0  0  0  0  0  0  0  0  0
   21.1669   19.0763   24.8203 H   0  0  0  0  0  0  0  0  0  0  0  0
   19.7276   18.5744   23.9214 H   0  0  0  0  0  0  0  0  0  0  0  0
   21.0573   19.8830   22.8128 C   0  0  0  0  0  0  0  0  0  0  0  0
   20.5956   20.8090   23.1786 H   0  0  0  0  0  0  0  0  0  0  0  0
   22.1354   20.0855   22.7631 H   0  0  0  0  0  0  0  0  0  0  0  0
   20.5312   19.5663   21.3881 C   0  0  0  0  0  0  0  0  0  0  0  0
   21.1121   18.7373   20.9621 H   0  0  0  0  0  0  0  0  0  0  0  0
   20.7273   20.4305   20.7386 H   0  0  0  0  0  0  0  0  0  0  0  0
   19.0237   19.2124   21.3154 C   0  0  0  0  0  0  0  0  0  0  0  0
   18.7665   18.9866   20.2710 H   0  0  0  0  0  0  0  0  0  0  0  0
   18.8210   18.2930   21.8812 H   0  0  0  0  0  0  0  0  0  0  0  0
   18.1028   20.3462   21.8206 C   0  0  0  0  0  0  0  0  0  0  0  0
   18.2972   21.2825   21.2816 H   0  0  0  0  0  0  0  0  0  0  0  0
   17.0484   20.0829   21.6661 H   0  0  0  0  0  0  0  0  0  0  0  0
   18.2428   20.5312   22.8929 H   0  0  0  0  0  0  0  0  0  0  0  0
  1  2  1  0  0  0  0
  1  3  1  0  0  0  0
  1  4  1  0  0  0  0
  1  5  1  0  0  0  0
  5  6  1  0  0  0  0
  5  7  1  0  0  0  0
  5  8  1  0  0  0  0
  8  9  1  0  0  0  0
  8 10  1  0  0  0  0
  8 11  1  0  0  0  0
 11 12  1  0  0  0  0
 11 13  1  0  0  0  0
 11 14  1  0  0  0  0
 14 15  1  0  0  0  0
 14 16  1  0  0  0  0
 14 17  1  0  0  0  0
 17 18  1  0  0  0  0
 17 19  1  0  0  0  0
 17 20  1  0  0  0  0
M  END
> <VConfSearch Rank>
651

> <Conf_Id>
2

> <Delta U+W>
0.994

> <U+W>
-10.784

> <U>
47.562

> <W>
-58.346

> <W(PB)>
-60.221

> <W(SA)>
1.875

> <Valence>
2.149

> <Coulomb>
45.034

> <VdW>
0.378

> <VdW6>
-5.599

> <VdW12>
5.977

> <Bond>
0.185

> <Angle>
0.935

> <Pdih>
1.028

> <Idih>
0.000

> <Tether>
0.000

$$$$
VeraChem MOL file


 20 19  0  0  0  0  0  0  0  0999 V2000     
   20.4213   20.2371   24.5751 N   0  3  0  0  0  0  0  0  0  0  0  0
   19.6547   20.1508   25.2496 H   0  0  0  0  0  0  0  0  0  0  0  0
   20.9750   19.3776   24.6347 H   0  0  0  0  0  0  0  0  0  0  0  0
   21.0198   21.0036   24.9000 H   0  0  0  0  0  0  0  0  0  0  0  0
   19.9099   20.4786   23.1682 C   0  0  0  0  0  0  0  0  0  0  0  0
   20.7733   20.5938   22.5078 H   0  0  0  0  0  0  0  0  0  0  0  0
   19.3577   21.4223   23.1720 H   0  0  0  0  0  0  0  0  0  0  0  0
   18.9972   19.3537   22.6391 C   0  0  0  0  0  0  0  0  0  0  0  0
   18.1169   19.2693   23.2900 H   0  0  0  0  0  0  0  0  0  0  0  0
   18.6133   19.6441   21.6528 H   0  0  0  0  0  0  0  0  0  0  0  0
   19.6934   17.9708   22.5404 C   0  0  0  0  0  0  0  0  0  0  0  0
   18.9806   17.2450   22.1252 H   0  0  0  0  0  0  0  0  0  0  0  0
   19.9298   17.6099   23.5504 H   0  0  0  0  0  0  0  0  0  0  0  0
   20.9865   17.9533   21.6856 C   0  0  0  0  0  0  0  0  0  0  0  0
   21.7502   18.6006   22.1378 H   0  0  0  0  0  0  0  0  0  0  0  0
   21.4043   16.9370   21.7025 H   0  0  0  0  0  0  0  0  0  0  0  0
   20.7556   18.3721   20.2159 C   0  0  0  0  0  0  0  0  0  0  0  0
   20.4455   19.4217   20.1401 H   0  0  0  0  0  0  0  0  0  0  0  0
   21.6792   18.2580   19.6338 H   0  0  0  0  0  0  0  0  0  0  0  0
   19.9833   17.7502   19.7449 H   0  0  0  0  0  0  0  0  0  0  0  0
  1  2  1  0  0  0  0
  1  3  1  0  0  0  0
  1  4  1  0  0  0  0
  1  5  1  0  0  0  0
  5  6  1  0  0  0  0
  5  7  1  0  0  0  0
  5  8  1  0  0  0  0
  8  9  1  0  0  0  0
  8 10  1  0  0  0  0
  8 11  1  0  0  0  0
 11 12  1  0  0  0  0
 11 13  1  0  0  0  0
 11 14  1  0  0  0  0
 14 15  1  0  0  0  0
 14 16  1  0  0  0  0
 14 17  1  0  0  0  0
 17 18  1  0  0  0  0
 17 19  1  0  0  0  0
 17 20  1  0  0  0  0
M  END
> <VConfSearch Rank>
652

> <Conf_Id>
1

> <Delta U+W>
1.032

> <U+W>
-10.746

> <U>
47.562

> <W>
-58.308

> <W(PB)>
-60.184

> <W(SA)>
1.877

> <Valence>
2.149

> <Coulomb>
45.035

> <VdW>
0.378

> <VdW6>
-5.599

> <VdW12>
5.978

> <Bond>
0.185

> <Angle>
0.935

> <Pdih>
1.028

> <Idih>
0.000

> <Tether>
0.000

$$$$
VeraChem MOL file


 20 19  0  0  0  0  0  0  0  0999 V2000     
   19.0364   18.3182   20.6493 N   0  3  0  0  0  0  0  0  0  0  0  0
   18.0468   18.5685   20.5595 H   0  0  0  0  0  0  0  0  0  0  0  0
   19.5827   19.1290   20.3447 H   0  0  0  0  0  0  0  0  0  0  0  0
   19.2160   17.5661   19.9759 H   0  0  0  0  0  0  0  0  0  0  0  0
   19.3871   17.9021   22.0648 C   0  0  0  0  0  0  0  0  0  0  0  0
   20.4413   17.6211   22.0812 H   0  0  0  0  0  0  0  0  0  0  0  0
   18.7983   17.0114   22.3006 H   0  0  0  0  0  0  0  0  0  0  0  0
   19.1044   18.9899   23.1228 C   0  0  0  0  0  0  0  0  0  0  0  0
   18.0391   19.2505   23.0668 H   0  0  0  0  0  0  0  0  0  0  0  0
   19.2586   18.5705   24.1258 H   0  0  0  0  0  0  0  0  0  0  0  0
   19.9467   20.2845   22.9647 C   0  0  0  0  0  0  0  0  0  0  0  0
   19.4022   21.1022   23.4569 H   0  0  0  0  0  0  0  0  0  0  0  0
   20.0167   20.5746   21.9085 H   0  0  0  0  0  0  0  0  0  0  0  0
   21.3629   20.2272   23.5932 C   0  0  0  0  0  0  0  0  0  0  0  0
   21.8213   21.2218   23.5003 H   0  0  0  0  0  0  0  0  0  0  0  0
   21.2823   20.0311   24.6716 H   0  0  0  0  0  0  0  0  0  0  0  0
   22.3099   19.1891   22.9518 C   0  0  0  0  0  0  0  0  0  0  0  0
   22.3247   19.2843   21.8584 H   0  0  0  0  0  0  0  0  0  0  0  0
   23.3359   19.3329   23.3144 H   0  0  0  0  0  0  0  0  0  0  0  0
   22.0162   18.1655   23.2127 H   0  0  0  0  0  0  0  0  0  0  0  0
  1  2  1  0  0  0  0
  1  3  1  0  0  0  0
  1  4  1  0  0  0  0
  1  5  1  0  0  0  0
  5  6  1  0  0  0  0
  5  7  1  0  0  0  0
  5  8  1  0  0  0  0
  8  9  1  0  0  0  0
  8 10  1  0  0  0  0
  8 11  1  0  0  0  0
 11 12  1  0  0  0  0
 11 13  1  0  0  0  0
 11 14  1  0  0  0  0
 14 15  1  0  0  0  0
 14 16  1  0  0  0  0
 14 17  1  0  0  0  0
 17 18  1  0  0  0  0
 17 19  1  0  0  0  0
 17 20  1  0  0  0  0
M  END
> <VConfSearch Rank>
653

> <Conf_Id>
80

> <Delta U+W>
2.920

> <U+W>
-8.857

> <U>
49.434

> <W>
-58.292

> <W(PB)>
-60.170

> <W(SA)>
1.879

> <Valence>
3.798

> <Coulomb>
45.253

> <VdW>
0.384

> <VdW6>
-5.595

> <VdW12>
5.979

> <Bond>
0.198

> <Angle>
1.368

> <Pdih>
2.231

> <Idih>
0.000

> <Tether>
0.000

$$$$
VeraChem MOL file


 20 19  0  0  0  0  0  0  0  0999 V2000     
   22.4782   18.9875   22.0328 N   0  3  0  0  0  0  0  0  0  0  0  0
   22.7988   18.1870   21.4792 H   0  0  0  0  0  0  0  0  0  0  0  0
   23.2613   19.6474   22.0839 H   0  0  0  0  0  0  0  0  0  0  0  0
   22.3096   18.6494   22.9846 H   0  0  0  0  0  0  0  0  0  0  0  0
   21.2405   19.6280   21.4348 C   0  0  0  0  0  0  0  0  0  0  0  0
   21.5099   19.9993   20.4423 H   0  0  0  0  0  0  0  0  0  0  0  0
   20.9741   20.4866   22.0531 H   0  0  0  0  0  0  0  0  0  0  0  0
   20.0405   18.6655   21.3060 C   0  0  0  0  0  0  0  0  0  0  0  0
   19.2343   19.1618   20.7499 H   0  0  0  0  0  0  0  0  0  0  0  0
   20.3522   17.8138   20.6869 H   0  0  0  0  0  0  0  0  0  0  0  0
   19.4893   18.1301   22.6551 C   0  0  0  0  0  0  0  0  0  0  0  0
   20.3118   17.8675   23.3327 H   0  0  0  0  0  0  0  0  0  0  0  0
   18.9644   17.1862   22.4531 H   0  0  0  0  0  0  0  0  0  0  0  0
   18.4893   19.0708   23.3756 C   0  0  0  0  0  0  0  0  0  0  0  0
   17.6203   19.2538   22.7282 H   0  0  0  0  0  0  0  0  0  0  0  0
   18.1018   18.5480   24.2612 H   0  0  0  0  0  0  0  0  0  0  0  0
   19.0874   20.4217   23.8264 C   0  0  0  0  0  0  0  0  0  0  0  0
   19.2814   21.0784   22.9701 H   0  0  0  0  0  0  0  0  0  0  0  0
   18.3855   20.9491   24.4852 H   0  0  0  0  0  0  0  0  0  0  0  0
   20.0239   20.2784   24.3807 H   0  0  0  0  0  0  0  0  0  0  0  0
  1  2  1  0  0  0  0
  1  3  1  0  0  0  0
  1  4  1  0  0  0  0
  1  5  1  0  0  0  0
  5  6  1  0  0  0  0
  5  7  1  0  0  0  0
  5  8  1  0  0  0  0
  8  9  1  0  0  0  0
  8 10  1  0  0  0  0
  8 11  1  0  0  0  0
 11 12  1  0  0  0  0
 11 13  1  0  0  0  0
 11 14  1  0  0  0  0
 14 15  1  0  0  0  0
 14 16  1  0  0  0  0
 14 17  1  0  0  0  0
 17 18  1  0  0  0  0
 17 19  1  0  0  0  0
 17 20  1  0  0  0  0
M  END
> <VConfSearch Rank>
654

> <Conf_Id>
65

> <Delta U+W>
2.949

> <U+W>
-8.829

> <U>
49.435

> <W>
-58.263

> <W(PB)>
-60.125

> <W(SA)>
1.862

> <Valence>
3.797

> <Coulomb>
45.253

> <VdW>
0.384

> <VdW6>
-5.596

> <VdW12>
5.980

> <Bond>
0.198

> <Angle>
1.369

> <Pdih>
2.230

> <Idih>
0.000

> <Tether>
0.000

$$$$
VeraChem MOL file


 20 19  0  0  0  0  0  0  0  0999 V2000     
   21.7561   19.5541   21.4126 N   0  3  0  0  0  0  0  0  0  0  0  0
   22.0378   19.5822   20.4269 H   0  0  0  0  0  0  0  0  0  0  0  0
   21.0487   20.2824   21.5494 H   0  0  0  0  0  0  0  0  0  0  0  0
   22.5777   19.8193   21.9649 H   0  0  0  0  0  0  0  0  0  0  0  0
   21.2284   18.1890   21.8094 C   0  0  0  0  0  0  0  0  0  0  0  0
   22.0359   17.4721   21.6378 H   0  0  0  0  0  0  0  0  0  0  0  0
   20.3975   17.9285   21.1483 H   0  0  0  0  0  0  0  0  0  0  0  0
   20.7764   18.0954   23.2809 C   0  0  0  0  0  0  0  0  0  0  0  0
   20.8171   17.0384   23.5757 H   0  0  0  0  0  0  0  0  0  0  0  0
   21.4993   18.6127   23.9255 H   0  0  0  0  0  0  0  0  0  0  0  0
   19.3402   18.6111   23.5656 C   0  0  0  0  0  0  0  0  0  0  0  0
   19.1332   18.4348   24.6303 H   0  0  0  0  0  0  0  0  0  0  0  0
   18.6078   18.0002   23.0198 H   0  0  0  0  0  0  0  0  0  0  0  0
   19.1019   20.1146   23.2734 C   0  0  0  0  0  0  0  0  0  0  0  0
   18.4049   20.5110   24.0254 H   0  0  0  0  0  0  0  0  0  0  0  0
   20.0320   20.6837   23.4045 H   0  0  0  0  0  0  0  0  0  0  0  0
   18.4871   20.3723   21.8772 C   0  0  0  0  0  0  0  0  0  0  0  0
   19.0882   19.9431   21.0685 H   0  0  0  0  0  0  0  0  0  0  0  0
   17.4837   19.9318   21.8101 H   0  0  0  0  0  0  0  0  0  0  0  0
   18.3876   21.4496   21.6911 H   0  0  0  0  0  0  0  0  0  0  0  0
  1  2  1  0  0  0  0
  1  3  1  0  0  0  0
  1  4  1  0  0  0  0
  1  5  1  0  0  0  0
  5  6  1  0  0  0  0
  5  7  1  0  0  0  0
  5  8  1  0  0  0  0
  8  9  1  0  0  0  0
  8 10  1  0  0  0  0
  8 11  1  0  0  0  0
 11 12  1  0  0  0  0
 11 13  1  0  0  0  0
 11 14  1  0  0  0  0
 14 15  1  0  0  0  0
 14 16  1  0  0  0  0
 14 17  1  0  0  0  0
 17 18  1  0  0  0  0
 17 19  1  0  0  0  0
 17 20  1  0  0  0  0
M  END
> <VConfSearch Rank>
655

> <Conf_Id>
77

> <Delta U+W>
5.366

> <U+W>
-6.412

> <U>
51.542

> <W>
-57.954

> <W(PB)>
-59.811

> <W(SA)>
1.857

> <Valence>
5.347

> <Coulomb>
45.870

> <VdW>
0.325

> <VdW6>
-6.161

> <VdW12>
6.486

> <Bond>
0.201

> <Angle>
1.484

> <Pdih>
3.662

> <Idih>
0.000

> <Tether>
0.000

$$$$
VeraChem MOL file


 20 19  0  0  0  0  0  0  0  0999 V2000     
   19.1622   18.0638   21.0877 N   0  3  0  0  0  0  0  0  0  0  0  0
   19.1771   18.4810   20.1516 H   0  0  0  0  0  0  0  0  0  0  0  0
   20.1253   17.8033   21.3207 H   0  0  0  0  0  0  0  0  0  0  0  0
   18.6186   17.1970   21.0192 H   0  0  0  0  0  0  0  0  0  0  0  0
   18.5816   19.0135   22.1175 C   0  0  0  0  0  0  0  0  0  0  0  0
   18.5285   18.4975   23.0798 H   0  0  0  0  0  0  0  0  0  0  0  0
   17.5612   19.2443   21.7996 H   0  0  0  0  0  0  0  0  0  0  0  0
   19.3707   20.3296   22.2715 C   0  0  0  0  0  0  0  0  0  0  0  0
   19.6636   20.7054   21.2821 H   0  0  0  0  0  0  0  0  0  0  0  0
   18.6866   21.0821   22.6857 H   0  0  0  0  0  0  0  0  0  0  0  0
   20.6098   20.2525   23.2033 C   0  0  0  0  0  0  0  0  0  0  0  0
   20.2940   20.0068   24.2268 H   0  0  0  0  0  0  0  0  0  0  0  0
   21.0385   21.2626   23.2635 H   0  0  0  0  0  0  0  0  0  0  0  0
   21.7291   19.2832   22.7450 C   0  0  0  0  0  0  0  0  0  0  0  0
   21.7358   19.1938   21.6503 H   0  0  0  0  0  0  0  0  0  0  0  0
   22.7017   19.7207   23.0112 H   0  0  0  0  0  0  0  0  0  0  0  0
   21.6386   17.8908   23.4135 C   0  0  0  0  0  0  0  0  0  0  0  0
   22.4143   17.2213   23.0196 H   0  0  0  0  0  0  0  0  0  0  0  0
   21.7926   17.9725   24.4975 H   0  0  0  0  0  0  0  0  0  0  0  0
   20.6662   17.4121   23.2558 H   0  0  0  0  0  0  0  0  0  0  0  0
  1  2  1  0  0  0  0
  1  3  1  0  0  0  0
  1  4  1  0  0  0  0
  1  5  1  0  0  0  0
  5  6  1  0  0  0  0
  5  7  1  0  0  0  0
  5  8  1  0  0  0  0
  8  9  1  0  0  0  0
  8 10  1  0  0  0  0
  8 11  1  0  0  0  0
 11 12  1  0  0  0  0
 11 13  1  0  0  0  0
 11 14  1  0  0  0  0
 14 15  1  0  0  0  0
 14 16  1  0  0  0  0
 14 17  1  0  0  0  0
 17 18  1  0  0  0  0
 17 19  1  0  0  0  0
 17 20  1  0  0  0  0
M  END
> <VConfSearch Rank>
656

> <Conf_Id>
67

> <Delta U+W>
5.353

> <U+W>
-6.425

> <U>
51.541

> <W>
-57.966

> <W(PB)>
-59.821

> <W(SA)>
1.855

> <Valence>
5.347

> <Coulomb>
45.870

> <VdW>
0.325

> <VdW6>
-6.161

> <VdW12>
6.486

> <Bond>
0.201

> <Angle>
1.485

> <Pdih>
3.662

> <Idih>
0.000

> <Tether>
0.000

$$$$
VeraChem MOL file


 20 19  0  0  0  0  0  0  0  0999 V2000     
   22.9958   17.6393   22.2990 N   0  3  0  0  0  0  0  0  0  0  0  0
   23.2617   17.9446   21.3575 H   0  0  0  0  0  0  0  0  0  0  0  0
   23.8581   17.5983   22.8526 H   0  0  0  0  0  0  0  0  0  0  0  0
   22.6494   16.6782   22.2174 H   0  0  0  0  0  0  0  0  0  0  0  0
   21.9683   18.5609   22.9246 C   0  0  0  0  0  0  0  0  0  0  0  0
   22.4139   19.5559   23.0081 H   0  0  0  0  0  0  0  0  0  0  0  0
   21.7555   18.1944   23.9325 H   0  0  0  0  0  0  0  0  0  0  0  0
   20.6604   18.6453   22.1173 C   0  0  0  0  0  0  0  0  0  0  0  0
   20.8810   18.9984   21.1011 H   0  0  0  0  0  0  0  0  0  0  0  0
   20.2248   17.6417   22.0223 H   0  0  0  0  0  0  0  0  0  0  0  0
   19.6416   19.5934   22.7880 C   0  0  0  0  0  0  0  0  0  0  0  0
   20.0826   20.5952   22.8863 H   0  0  0  0  0  0  0  0  0  0  0  0
   19.4272   19.2400   23.8063 H   0  0  0  0  0  0  0  0  0  0  0  0
   18.3241   19.6861   21.9860 C   0  0  0  0  0  0  0  0  0  0  0  0
   18.5338   20.0412   20.9672 H   0  0  0  0  0  0  0  0  0  0  0  0
   17.8784   18.6863   21.8872 H   0  0  0  0  0  0  0  0  0  0  0  0
   17.3094   20.6344   22.6597 C   0  0  0  0  0  0  0  0  0  0  0  0
   17.7136   21.6518   22.7417 H   0  0  0  0  0  0  0  0  0  0  0  0
   16.3812   20.6871   22.0760 H   0  0  0  0  0  0  0  0  0  0  0  0
   17.0530   20.2861   23.6688 H   0  0  0  0  0  0  0  0  0  0  0  0
  1  2  1  0  0  0  0
  1  3  1  0  0  0  0
  1  4  1  0  0  0  0
  1  5  1  0  0  0  0
  5  6  1  0  0  0  0
  5  7  1  0  0  0  0
  5  8  1  0  0  0  0
  8  9  1  0  0  0  0
  8 10  1  0  0  0  0
  8 11  1  0  0  0  0
 11 12  1  0  0  0  0
 11 13  1  0  0  0  0
 11 14  1  0  0  0  0
 14 15  1  0  0  0  0
 14 16  1  0  0  0  0
 14 17  1  0  0  0  0
 17 18  1  0  0  0  0
 17 19  1  0  0  0  0
 17 20  1  0  0  0  0
M  END
> <VConfSearch Rank>
657

> <Conf_Id>
72

> <Delta U+W>
0.000

> <U+W>
-11.778

> <U>
45.772

> <W>
-57.550

> <W(PB)>
-59.511

> <W(SA)>
1.961

> <Valence>
1.299

> <Coulomb>
44.177

> <VdW>
0.297

> <VdW6>
-3.490

> <VdW12>
3.786

> <Bond>
0.096

> <Angle>
0.381

> <Pdih>
0.822

> <Idih>
0.000

> <Tether>
0.000

$$$$
VeraChem MOL file


 20 19  0  0  0  0  0  0  0  0999 V2000     
   20.1241   16.3125   21.5832 N   0  3  0  0  0  0  0  0  0  0  0  0
   19.7058   16.0067   22.4675 H   0  0  0  0  0  0  0  0  0  0  0  0
   19.3650   16.3789   20.8978 H   0  0  0  0  0  0  0  0  0  0  0  0
   20.7422   15.5566   21.2698 H   0  0  0  0  0  0  0  0  0  0  0  0
   20.8691   17.6237   21.7323 C   0  0  0  0  0  0  0  0  0  0  0  0
   21.3125   17.8717   20.7641 H   0  0  0  0  0  0  0  0  0  0  0  0
   21.6784   17.4723   22.4517 H   0  0  0  0  0  0  0  0  0  0  0  0
   19.9693   18.7811   22.2015 C   0  0  0  0  0  0  0  0  0  0  0  0
   19.1491   18.9192   21.4846 H   0  0  0  0  0  0  0  0  0  0  0  0
   19.5162   18.5141   23.1645 H   0  0  0  0  0  0  0  0  0  0  0  0
   20.7696   20.0980   22.3374 C   0  0  0  0  0  0  0  0  0  0  0  0
   21.2775   20.3078   21.3857 H   0  0  0  0  0  0  0  0  0  0  0  0
   21.5617   19.9740   23.0889 H   0  0  0  0  0  0  0  0  0  0  0  0
   19.8922   21.3189   22.7068 C   0  0  0  0  0  0  0  0  0  0  0  0
   20.5166   22.2230   22.6796 H   0  0  0  0  0  0  0  0  0  0  0  0
   19.1130   21.4611   21.9449 H   0  0  0  0  0  0  0  0  0  0  0  0
   19.2392   21.2066   24.1034 C   0  0  0  0  0  0  0  0  0  0  0  0
   19.9953   21.0357   24.8807 H   0  0  0  0  0  0  0  0  0  0  0  0
   18.7052   22.1326   24.3533 H   0  0  0  0  0  0  0  0  0  0  0  0
   18.5120   20.3863   24.1443 H   0  0  0  0  0  0  0  0  0  0  0  0
  1  2  1  0  0  0  0
  1  3  1  0  0  0  0
  1  4  1  0  0  0  0
  1  5  1  0  0  0  0
  5  6  1  0  0  0  0
  5  7  1  0  0  0  0
  5  8  1  0  0  0  0
  8  9  1  0  0  0  0
  8 10  1  0  0  0  0
  8 11  1  0  0  0  0
 11 12  1  0  0  0  0
 11 13  1  0  0  0  0
 11 14  1  0  0  0  0
 14 15  1  0  0  0  0
 14 16  1  0  0  0  0
 14 17  1  0  0  0  0
 17 18  1  0  0  0  0
 17 19  1  0  0  0  0
 17 20  1  0  0  0  0
M  END
> <VConfSearch Rank>
658

> <Conf_Id>
42

> <Delta U+W>
0.508

> <U+W>
-11.270

> <U>
46.486

> <W>
-57.756

> <W(PB)>
-59.705

> <W(SA)>
1.949

> <Valence>
1.806

> <Coulomb>
44.248

> <VdW>
0.433

> <VdW6>
-4.089

> <VdW12>
4.522

> <Bond>
0.131

> <Angle>
0.628

> <Pdih>
1.047

> <Idih>
0.000

> <Tether>
0.000

$$$$
VeraChem MOL file


 20 19  0  0  0  0  0  0  0  0999 V2000     
   20.8256   16.8195   20.5917 N   0  3  0  0  0  0  0  0  0  0  0  0
   21.1528   17.3956   19.8097 H   0  0  0  0  0  0  0  0  0  0  0  0
   21.6502   16.5661   21.1450 H   0  0  0  0  0  0  0  0  0  0  0  0
   20.4600   15.9506   20.1881 H   0  0  0  0  0  0  0  0  0  0  0  0
   19.7821   17.5358   21.4252 C   0  0  0  0  0  0  0  0  0  0  0  0
   19.4583   16.8558   22.2179 H   0  0  0  0  0  0  0  0  0  0  0  0
   18.9234   17.7469   20.7821 H   0  0  0  0  0  0  0  0  0  0  0  0
   20.2985   18.8461   22.0462 C   0  0  0  0  0  0  0  0  0  0  0  0
   21.1703   18.6248   22.6748 H   0  0  0  0  0  0  0  0  0  0  0  0
   20.6373   19.5195   21.2478 H   0  0  0  0  0  0  0  0  0  0  0  0
   19.2015   19.5433   22.8850 C   0  0  0  0  0  0  0  0  0  0  0  0
   18.8951   18.8877   23.7120 H   0  0  0  0  0  0  0  0  0  0  0  0
   18.3098   19.6873   22.2590 H   0  0  0  0  0  0  0  0  0  0  0  0
   19.6350   20.9186   23.4483 C   0  0  0  0  0  0  0  0  0  0  0  0
   19.9196   21.5857   22.6226 H   0  0  0  0  0  0  0  0  0  0  0  0
   18.7698   21.3879   23.9374 H   0  0  0  0  0  0  0  0  0  0  0  0
   20.7943   20.8283   24.4668 C   0  0  0  0  0  0  0  0  0  0  0  0
   21.7200   20.4767   23.9945 H   0  0  0  0  0  0  0  0  0  0  0  0
   21.0009   21.8146   24.9021 H   0  0  0  0  0  0  0  0  0  0  0  0
   20.5458   20.1446   25.2888 H   0  0  0  0  0  0  0  0  0  0  0  0
  1  2  1  0  0  0  0
  1  3  1  0  0  0  0
  1  4  1  0  0  0  0
  1  5  1  0  0  0  0
  5  6  1  0  0  0  0
  5  7  1  0  0  0  0
  5  8  1  0  0  0  0
  8  9  1  0  0  0  0
  8 10  1  0  0  0  0
  8 11  1  0  0  0  0
 11 12  1  0  0  0  0
 11 13  1  0  0  0  0
 11 14  1  0  0  0  0
 14 15  1  0  0  0  0
 14 16  1  0  0  0  0
 14 17  1  0  0  0  0
 17 18  1  0  0  0  0
 17 19  1  0  0  0  0
 17 20  1  0  0  0  0
M  END
> <VConfSearch Rank>
659

> <Conf_Id>
41

> <Delta U+W>
0.515

> <U+W>
-11.263

> <U>
46.486

> <W>
-57.749

> <W(PB)>
-59.685

> <W(SA)>
1.936

> <Valence>
1.806

> <Coulomb>
44.248

> <VdW>
0.433

> <VdW6>
-4.089

> <VdW12>
4.522

> <Bond>
0.131

> <Angle>
0.628

> <Pdih>
1.047

> <Idih>
0.000

> <Tether>
0.000

$$$$
VeraChem MOL file


 20 19  0  0  0  0  0  0  0  0999 V2000     
   20.7697   21.2195   24.1623 N   0  3  0  0  0  0  0  0  0  0  0  0
   21.4330   21.7444   24.7420 H   0  0  0  0  0  0  0  0  0  0  0  0
   20.7503   21.6749   23.2451 H   0  0  0  0  0  0  0  0  0  0  0  0
   19.8434   21.3447   24.5823 H   0  0  0  0  0  0  0  0  0  0  0  0
   21.1496   19.7550   24.0584 C   0  0  0  0  0  0  0  0  0  0  0  0
   21.1921   19.3518   25.0739 H   0  0  0  0  0  0  0  0  0  0  0  0
   22.1521   19.6935   23.6264 H   0  0  0  0  0  0  0  0  0  0  0  0
   20.1698   18.9135   23.2170 C   0  0  0  0  0  0  0  0  0  0  0  0
   20.4671   17.8610   23.3036 H   0  0  0  0  0  0  0  0  0  0  0  0
   19.1608   18.9912   23.6431 H   0  0  0  0  0  0  0  0  0  0  0  0
   20.1508   19.3313   21.7250 C   0  0  0  0  0  0  0  0  0  0  0  0
   21.1588   19.2292   21.2995 H   0  0  0  0  0  0  0  0  0  0  0  0
   19.8885   20.3946   21.6464 H   0  0  0  0  0  0  0  0  0  0  0  0
   19.1450   18.5214   20.8708 C   0  0  0  0  0  0  0  0  0  0  0  0
   18.1327   18.6313   21.2845 H   0  0  0  0  0  0  0  0  0  0  0  0
   19.1122   18.9541   19.8611 H   0  0  0  0  0  0  0  0  0  0  0  0
   19.5004   17.0212   20.7568 C   0  0  0  0  0  0  0  0  0  0  0  0
   19.4247   16.5130   21.7260 H   0  0  0  0  0  0  0  0  0  0  0  0
   18.8134   16.5155   20.0659 H   0  0  0  0  0  0  0  0  0  0  0  0
   20.5203   16.8845   20.3748 H   0  0  0  0  0  0  0  0  0  0  0  0
  1  2  1  0  0  0  0
  1  3  1  0  0  0  0
  1  4  1  0  0  0  0
  1  5  1  0  0  0  0
  5  6  1  0  0  0  0
  5  7  1  0  0  0  0
  5  8  1  0  0  0  0
  8  9  1  0  0  0  0
  8 10  1  0  0  0  0
  8 11  1  0  0  0  0
 11 12  1  0  0  0  0
 11 13  1  0  0  0  0
 11 14  1  0  0  0  0
 14 15  1  0  0  0  0
 14 16  1  0  0  0  0
 14 17  1  0  0  0  0
 17 18  1  0  0  0  0
 17 19  1  0  0  0  0
 17 20  1  0  0  0  0
M  END
> <VConfSearch Rank>
660

> <Conf_Id>
33

> <Delta U+W>
0.703

> <U+W>
-11.075

> <U>
47.080

> <W>
-58.154

> <W(PB)>
-60.053

> <W(SA)>
1.899

> <Valence>
1.943

> <Coulomb>
44.572

> <VdW>
0.565

> <VdW6>
-4.575

> <VdW12>
5.139

> <Bond>
0.158

> <Angle>
0.700

> <Pdih>
1.085

> <Idih>
0.000

> <Tether>
0.000

$$$$
VeraChem MOL file


 20 19  0  0  0  0  0  0  0  0999 V2000     
   20.8081   21.5256   23.6694 N   0  3  0  0  0  0  0  0  0  0  0  0
   20.5642   22.4616   24.0099 H   0  0  0  0  0  0  0  0  0  0  0  0
   21.5741   21.1848   24.2587 H   0  0  0  0  0  0  0  0  0  0  0  0
   21.1823   21.6408   22.7231 H   0  0  0  0  0  0  0  0  0  0  0  0
   19.6155   20.5890   23.6956 C   0  0  0  0  0  0  0  0  0  0  0  0
   18.8303   21.0206   23.0690 H   0  0  0  0  0  0  0  0  0  0  0  0
   19.2471   20.5517   24.7244 H   0  0  0  0  0  0  0  0  0  0  0  0
   19.9337   19.1588   23.2166 C   0  0  0  0  0  0  0  0  0  0  0  0
   20.7345   18.7345   23.8365 H   0  0  0  0  0  0  0  0  0  0  0  0
   19.0440   18.5396   23.3858 H   0  0  0  0  0  0  0  0  0  0  0  0
   20.3334   19.1037   21.7205 C   0  0  0  0  0  0  0  0  0  0  0  0
   21.2018   19.7536   21.5500 H   0  0  0  0  0  0  0  0  0  0  0  0
   19.5184   19.5090   21.1049 H   0  0  0  0  0  0  0  0  0  0  0  0
   20.6921   17.6797   21.2303 C   0  0  0  0  0  0  0  0  0  0  0  0
   21.0708   17.7468   20.2007 H   0  0  0  0  0  0  0  0  0  0  0  0
   21.5163   17.2750   21.8343 H   0  0  0  0  0  0  0  0  0  0  0  0
   19.4975   16.6990   21.2569 C   0  0  0  0  0  0  0  0  0  0  0  0
   18.6480   17.0952   20.6856 H   0  0  0  0  0  0  0  0  0  0  0  0
   19.7809   15.7366   20.8114 H   0  0  0  0  0  0  0  0  0  0  0  0
   19.1605   16.5000   22.2816 H   0  0  0  0  0  0  0  0  0  0  0  0
  1  2  1  0  0  0  0
  1  3  1  0  0  0  0
  1  4  1  0  0  0  0
  1  5  1  0  0  0  0
  5  6  1  0  0  0  0
  5  7  1  0  0  0  0
  5  8  1  0  0  0  0
  8  9  1  0  0  0  0
  8 10  1  0  0  0  0
  8 11  1  0  0  0  0
 11 12  1  0  0  0  0
 11 13  1  0  0  0  0
 11 14  1  0  0  0  0
 14 15  1  0  0  0  0
 14 16  1  0  0  0  0
 14 17  1  0  0  0  0
 17 18  1  0  0  0  0
 17 19  1  0  0  0  0
 17 20  1  0  0  0  0
M  END
> <VConfSearch Rank>
661

> <Conf_Id>
24

> <Delta U+W>
0.847

> <U+W>
-10.931

> <U>
47.080

> <W>
-58.011

> <W(PB)>
-59.914

> <W(SA)>
1.903

> <Valence>
1.943

> <Coulomb>
44.572

> <VdW>
0.565

> <VdW6>
-4.575

> <VdW12>
5.140

> <Bond>
0.158

> <Angle>
0.700

> <Pdih>
1.085

> <Idih>
0.000

> <Tether>
0.000

$$$$
VeraChem MOL file


 20 19  0  0  0  0  0  0  0  0999 V2000     
   21.5111   20.6618   24.3693 N   0  3  0  0  0  0  0  0  0  0  0  0
   21.6010   20.4534   25.3693 H   0  0  0  0  0  0  0  0  0  0  0  0
   22.4079   20.4238   23.9342 H   0  0  0  0  0  0  0  0  0  0  0  0
   21.3961   21.6768   24.2867 H   0  0  0  0  0  0  0  0  0  0  0  0
   20.3576   19.9082   23.7385 C   0  0  0  0  0  0  0  0  0  0  0  0
   19.4422   20.1866   24.2677 H   0  0  0  0  0  0  0  0  0  0  0  0
   20.5313   18.8397   23.8906 H   0  0  0  0  0  0  0  0  0  0  0  0
   20.1951   20.1987   22.2346 C   0  0  0  0  0  0  0  0  0  0  0  0
   20.0628   21.2791   22.0899 H   0  0  0  0  0  0  0  0  0  0  0  0
   21.1167   19.9281   21.7038 H   0  0  0  0  0  0  0  0  0  0  0  0
   18.9863   19.4593   21.6084 C   0  0  0  0  0  0  0  0  0  0  0  0
   18.9226   19.7196   20.5428 H   0  0  0  0  0  0  0  0  0  0  0  0
   18.0615   19.8359   22.0670 H   0  0  0  0  0  0  0  0  0  0  0  0
   19.0216   17.9162   21.7521 C   0  0  0  0  0  0  0  0  0  0  0  0
   18.9788   17.6325   22.8125 H   0  0  0  0  0  0  0  0  0  0  0  0
   18.1137   17.5008   21.2926 H   0  0  0  0  0  0  0  0  0  0  0  0
   20.2571   17.2654   21.0894 C   0  0  0  0  0  0  0  0  0  0  0  0
   20.1873   16.1710   21.1374 H   0  0  0  0  0  0  0  0  0  0  0  0
   20.3343   17.5505   20.0322 H   0  0  0  0  0  0  0  0  0  0  0  0
   21.1861   17.5588   21.5939 H   0  0  0  0  0  0  0  0  0  0  0  0
  1  2  1  0  0  0  0
  1  3  1  0  0  0  0
  1  4  1  0  0  0  0
  1  5  1  0  0  0  0
  5  6  1  0  0  0  0
  5  7  1  0  0  0  0
  5  8  1  0  0  0  0
  8  9  1  0  0  0  0
  8 10  1  0  0  0  0
  8 11  1  0  0  0  0
 11 12  1  0  0  0  0
 11 13  1  0  0  0  0
 11 14  1  0  0  0  0
 14 15  1  0  0  0  0
 14 16  1  0  0  0  0
 14 17  1  0  0  0  0
 17 18  1  0  0  0  0
 17 19  1  0  0  0  0
 17 20  1  0  0  0  0
M  END
> <VConfSearch Rank>
662

> <Conf_Id>
64

> <Delta U+W>
0.707

> <U+W>
-11.070

> <U>
47.077

> <W>
-58.148

> <W(PB)>
-60.054

> <W(SA)>
1.906

> <Valence>
2.039

> <Coulomb>
44.655

> <VdW>
0.383

> <VdW6>
-4.912

> <VdW12>
5.295

> <Bond>
0.159

> <Angle>
0.856

> <Pdih>
1.024

> <Idih>
0.000

> <Tether>
0.000

$$$$
VeraChem MOL file


 20 19  0  0  0  0  0  0  0  0999 V2000     
   21.9212   20.9028   21.3977 N   0  3  0  0  0  0  0  0  0  0  0  0
   22.2675   21.6040   22.0601 H   0  0  0  0  0  0  0  0  0  0  0  0
   22.6556   20.1952   21.2967 H   0  0  0  0  0  0  0  0  0  0  0  0
   21.8319   21.3706   20.4895 H   0  0  0  0  0  0  0  0  0  0  0  0
   20.6084   20.2962   21.8502 C   0  0  0  0  0  0  0  0  0  0  0  0
   20.2861   19.5844   21.0856 H   0  0  0  0  0  0  0  0  0  0  0  0
   19.8675   21.0981   21.9079 H   0  0  0  0  0  0  0  0  0  0  0  0
   20.7083   19.5844   23.2126 C   0  0  0  0  0  0  0  0  0  0  0  0
   21.4584   18.7851   23.1584 H   0  0  0  0  0  0  0  0  0  0  0  0
   21.0724   20.2973   23.9642 H   0  0  0  0  0  0  0  0  0  0  0  0
   19.3518   19.0067   23.6881 C   0  0  0  0  0  0  0  0  0  0  0  0
   18.6508   19.8358   23.8571 H   0  0  0  0  0  0  0  0  0  0  0  0
   19.4925   18.5261   24.6661 H   0  0  0  0  0  0  0  0  0  0  0  0
   18.6990   17.9925   22.7142 C   0  0  0  0  0  0  0  0  0  0  0  0
   17.7404   17.6649   23.1404 H   0  0  0  0  0  0  0  0  0  0  0  0
   18.4530   18.4839   21.7630 H   0  0  0  0  0  0  0  0  0  0  0  0
   19.5750   16.7479   22.4448 C   0  0  0  0  0  0  0  0  0  0  0  0
   19.8523   16.2496   23.3828 H   0  0  0  0  0  0  0  0  0  0  0  0
   19.0314   16.0215   21.8270 H   0  0  0  0  0  0  0  0  0  0  0  0
   20.4959   17.0116   21.9099 H   0  0  0  0  0  0  0  0  0  0  0  0
  1  2  1  0  0  0  0
  1  3  1  0  0  0  0
  1  4  1  0  0  0  0
  1  5  1  0  0  0  0
  5  6  1  0  0  0  0
  5  7  1  0  0  0  0
  5  8  1  0  0  0  0
  8  9  1  0  0  0  0
  8 10  1  0  0  0  0
  8 11  1  0  0  0  0
 11 12  1  0  0  0  0
 11 13  1  0  0  0  0
 11 14  1  0  0  0  0
 14 15  1  0  0  0  0
 14 16  1  0  0  0  0
 14 17  1  0  0  0  0
 17 18  1  0  0  0  0
 17 19  1  0  0  0  0
 17 20  1  0  0  0  0
M  END
> <VConfSearch Rank>
663

> <Conf_Id>
22

> <Delta U+W>
0.731

> <U+W>
-11.047

> <U>
47.078

> <W>
-58.125

> <W(PB)>
-60.031

> <W(SA)>
1.906

> <Valence>
2.039

> <Coulomb>
44.655

> <VdW>
0.383

> <VdW6>
-4.913

> <VdW12>
5.296

> <Bond>
0.159

> <Angle>
0.856

> <Pdih>
1.024

> <Idih>
0.000

> <Tether>
0.000

$$$$
VeraChem MOL file


 20 19  0  0  0  0  0  0  0  0999 V2000     
   18.1591   20.3205   20.9926 N   0  3  0  0  0  0  0  0  0  0  0  0
   17.8994   21.1357   21.5568 H   0  0  0  0  0  0  0  0  0  0  0  0
   18.4859   20.6726   20.0873 H   0  0  0  0  0  0  0  0  0  0  0  0
   17.2964   19.7959   20.8133 H   0  0  0  0  0  0  0  0  0  0  0  0
   19.2056   19.4663   21.6794 C   0  0  0  0  0  0  0  0  0  0  0  0
   19.4137   18.6054   21.0383 H   0  0  0  0  0  0  0  0  0  0  0  0
   18.7762   19.1059   22.6170 H   0  0  0  0  0  0  0  0  0  0  0  0
   20.5120   20.2270   21.9679 C   0  0  0  0  0  0  0  0  0  0  0  0
   20.8675   20.6844   21.0349 H   0  0  0  0  0  0  0  0  0  0  0  0
   20.3081   21.0543   22.6605 H   0  0  0  0  0  0  0  0  0  0  0  0
   21.6443   19.3367   22.5400 C   0  0  0  0  0  0  0  0  0  0  0  0
   22.5459   19.9600   22.6187 H   0  0  0  0  0  0  0  0  0  0  0  0
   21.8963   18.5395   21.8270 H   0  0  0  0  0  0  0  0  0  0  0  0
   21.3562   18.7324   23.9389 C   0  0  0  0  0  0  0  0  0  0  0  0
   22.3158   18.5801   24.4528 H   0  0  0  0  0  0  0  0  0  0  0  0
   20.7946   19.4483   24.5553 H   0  0  0  0  0  0  0  0  0  0  0  0
   20.6227   17.3712   23.8950 C   0  0  0  0  0  0  0  0  0  0  0  0
   19.6142   17.4555   23.4771 H   0  0  0  0  0  0  0  0  0  0  0  0
   21.1811   16.6423   23.2934 H   0  0  0  0  0  0  0  0  0  0  0  0
   20.5234   16.9586   24.9074 H   0  0  0  0  0  0  0  0  0  0  0  0
  1  2  1  0  0  0  0
  1  3  1  0  0  0  0
  1  4  1  0  0  0  0
  1  5  1  0  0  0  0
  5  6  1  0  0  0  0
  5  7  1  0  0  0  0
  5  8  1  0  0  0  0
  8  9  1  0  0  0  0
  8 10  1  0  0  0  0
  8 11  1  0  0  0  0
 11 12  1  0  0  0  0
 11 13  1  0  0  0  0
 11 14  1  0  0  0  0
 14 15  1  0  0  0  0
 14 16  1  0  0  0  0
 14 17  1  0  0  0  0
 17 18  1  0  0  0  0
 17 19  1  0  0  0  0
 17 20  1  0  0  0  0
M  END
> <VConfSearch Rank>
664

> <Conf_Id>
61

> <Delta U+W>
2.669

> <U+W>
-9.108

> <U>
48.916

> <W>
-58.025

> <W(PB)>
-59.935

> <W(SA)>
1.911

> <Valence>
3.785

> <Coulomb>
44.716

> <VdW>
0.415

> <VdW6>
-4.836

> <VdW12>
5.251

> <Bond>
0.175

> <Angle>
1.195

> <Pdih>
2.415

> <Idih>
0.000

> <Tether>
0.000

$$$$
VeraChem MOL file


 20 19  0  0  0  0  0  0  0  0999 V2000     
   21.8908   17.8540   21.5529 N   0  3  0  0  0  0  0  0  0  0  0  0
   22.2634   17.4070   20.7085 H   0  0  0  0  0  0  0  0  0  0  0  0
   22.5288   17.6180   22.3194 H   0  0  0  0  0  0  0  0  0  0  0  0
   20.9935   17.4073   21.7584 H   0  0  0  0  0  0  0  0  0  0  0  0
   21.7509   19.3543   21.3792 C   0  0  0  0  0  0  0  0  0  0  0  0
   21.1086   19.5470   20.5157 H   0  0  0  0  0  0  0  0  0  0  0  0
   22.7476   19.7423   21.1520 H   0  0  0  0  0  0  0  0  0  0  0  0
   21.1978   20.0895   22.6181 C   0  0  0  0  0  0  0  0  0  0  0  0
   21.6644   19.6940   23.5301 H   0  0  0  0  0  0  0  0  0  0  0  0
   21.5121   21.1396   22.5508 H   0  0  0  0  0  0  0  0  0  0  0  0
   19.6530   20.0642   22.7466 C   0  0  0  0  0  0  0  0  0  0  0  0
   19.2037   20.5163   21.8515 H   0  0  0  0  0  0  0  0  0  0  0  0
   19.3696   20.7097   23.5895 H   0  0  0  0  0  0  0  0  0  0  0  0
   19.0510   18.6572   22.9711 C   0  0  0  0  0  0  0  0  0  0  0  0
   19.1923   18.0403   22.0748 H   0  0  0  0  0  0  0  0  0  0  0  0
   19.5711   18.1558   23.7994 H   0  0  0  0  0  0  0  0  0  0  0  0
   17.5414   18.7284   23.2855 C   0  0  0  0  0  0  0  0  0  0  0  0
   17.1279   17.7222   23.4324 H   0  0  0  0  0  0  0  0  0  0  0  0
   17.3545   19.3051   24.2007 H   0  0  0  0  0  0  0  0  0  0  0  0
   16.9889   19.2027   22.4639 H   0  0  0  0  0  0  0  0  0  0  0  0
  1  2  1  0  0  0  0
  1  3  1  0  0  0  0
  1  4  1  0  0  0  0
  1  5  1  0  0  0  0
  5  6  1  0  0  0  0
  5  7  1  0  0  0  0
  5  8  1  0  0  0  0
  8  9  1  0  0  0  0
  8 10  1  0  0  0  0
  8 11  1  0  0  0  0
 11 12  1  0  0  0  0
 11 13  1  0  0  0  0
 11 14  1  0  0  0  0
 14 15  1  0  0  0  0
 14 16  1  0  0  0  0
 14 17  1  0  0  0  0
 17 18  1  0  0  0  0
 17 19  1  0  0  0  0
 17 20  1  0  0  0  0
M  END
> <VConfSearch Rank>
665

> <Conf_Id>
69

> <Delta U+W>
2.811

> <U+W>
-8.967

> <U>
49.216

> <W>
-58.183

> <W(PB)>
-60.064

> <W(SA)>
1.881

> <Valence>
2.929

> <Coulomb>
46.006

> <VdW>
0.281

> <VdW6>
-4.909

> <VdW12>
5.190

> <Bond>
0.156

> <Angle>
0.974

> <Pdih>
1.799

> <Idih>
0.000

> <Tether>
0.000

$$$$
VeraChem MOL file


 20 19  0  0  0  0  0  0  0  0999 V2000     
   22.1669   20.1171   22.3292 N   0  3  0  0  0  0  0  0  0  0  0  0
   21.3817   20.6019   22.7713 H   0  0  0  0  0  0  0  0  0  0  0  0
   22.7357   19.7145   23.0807 H   0  0  0  0  0  0  0  0  0  0  0  0
   22.7429   20.8315   21.8715 H   0  0  0  0  0  0  0  0  0  0  0  0
   21.7002   19.0586   21.3483 C   0  0  0  0  0  0  0  0  0  0  0  0
   22.5978   18.6053   20.9187 H   0  0  0  0  0  0  0  0  0  0  0  0
   21.1503   19.5496   20.5409 H   0  0  0  0  0  0  0  0  0  0  0  0
   20.8302   17.9490   21.9755 C   0  0  0  0  0  0  0  0  0  0  0  0
   20.8932   17.0674   21.3239 H   0  0  0  0  0  0  0  0  0  0  0  0
   21.2525   17.6400   22.9410 H   0  0  0  0  0  0  0  0  0  0  0  0
   19.3322   18.3161   22.1334 C   0  0  0  0  0  0  0  0  0  0  0  0
   18.7954   17.4208   22.4766 H   0  0  0  0  0  0  0  0  0  0  0  0
   18.9109   18.5661   21.1498 H   0  0  0  0  0  0  0  0  0  0  0  0
   19.0560   19.4732   23.1219 C   0  0  0  0  0  0  0  0  0  0  0  0
   19.5659   19.2794   24.0761 H   0  0  0  0  0  0  0  0  0  0  0  0
   19.4564   20.4132   22.7220 H   0  0  0  0  0  0  0  0  0  0  0  0
   17.5445   19.6528   23.3787 C   0  0  0  0  0  0  0  0  0  0  0  0
   17.1072   18.7467   23.8180 H   0  0  0  0  0  0  0  0  0  0  0  0
   17.3651   20.4832   24.0740 H   0  0  0  0  0  0  0  0  0  0  0  0
   17.0090   19.8731   22.4460 H   0  0  0  0  0  0  0  0  0  0  0  0
  1  2  1  0  0  0  0
  1  3  1  0  0  0  0
  1  4  1  0  0  0  0
  1  5  1  0  0  0  0
  5  6  1  0  0  0  0
  5  7  1  0  0  0  0
  5  8  1  0  0  0  0
  8  9  1  0  0  0  0
  8 10  1  0  0  0  0
  8 11  1  0  0  0  0
 11 12  1  0  0  0  0
 11 13  1  0  0  0  0
 11 14  1  0  0  0  0
 14 15  1  0  0  0  0
 14 16  1  0  0  0  0
 14 17  1  0  0  0  0
 17 18  1  0  0  0  0
 17 19  1  0  0  0  0
 17 20  1  0  0  0  0
M  END
> <VConfSearch Rank>
666

> <Conf_Id>
26

> <Delta U+W>
2.809

> <U+W>
-8.969

> <U>
49.216

> <W>
-58.185

> <W(PB)>
-60.088

> <W(SA)>
1.903

> <Valence>
2.929

> <Coulomb>
46.006

> <VdW>
0.281

> <VdW6>
-4.909

> <VdW12>
5.190

> <Bond>
0.156

> <Angle>
0.974

> <Pdih>
1.799

> <Idih>
0.000

> <Tether>
0.000

$$$$
VeraChem MOL file


 20 19  0  0  0  0  0  0  0  0999 V2000     
   20.6288   20.0940   24.6449 N   0  3  0  0  0  0  0  0  0  0  0  0
   21.2338   19.2776   24.5170 H   0  0  0  0  0  0  0  0  0  0  0  0
   21.2361   20.9187   24.6779 H   0  0  0  0  0  0  0  0  0  0  0  0
   20.1955   20.0053   25.5700 H   0  0  0  0  0  0  0  0  0  0  0  0
   19.5913   20.2015   23.5444 C   0  0  0  0  0  0  0  0  0  0  0  0
   18.9653   21.0715   23.7606 H   0  0  0  0  0  0  0  0  0  0  0  0
   18.9592   19.3106   23.5849 H   0  0  0  0  0  0  0  0  0  0  0  0
   20.1973   20.3451   22.1335 C   0  0  0  0  0  0  0  0  0  0  0  0
   19.3833   20.4932   21.4123 H   0  0  0  0  0  0  0  0  0  0  0  0
   20.8024   21.2605   22.0939 H   0  0  0  0  0  0  0  0  0  0  0  0
   21.0681   19.1382   21.6954 C   0  0  0  0  0  0  0  0  0  0  0  0
   21.9690   19.0936   22.3219 H   0  0  0  0  0  0  0  0  0  0  0  0
   21.4268   19.3142   20.6719 H   0  0  0  0  0  0  0  0  0  0  0  0
   20.3506   17.7651   21.7493 C   0  0  0  0  0  0  0  0  0  0  0  0
   21.0617   16.9856   21.4417 H   0  0  0  0  0  0  0  0  0  0  0  0
   20.0676   17.5240   22.7829 H   0  0  0  0  0  0  0  0  0  0  0  0
   19.1040   17.6887   20.8388 C   0  0  0  0  0  0  0  0  0  0  0  0
   19.3569   17.9420   19.8011 H   0  0  0  0  0  0  0  0  0  0  0  0
   18.6857   16.6738   20.8439 H   0  0  0  0  0  0  0  0  0  0  0  0
   18.3155   18.3722   21.1773 H   0  0  0  0  0  0  0  0  0  0  0  0
  1  2  1  0  0  0  0
  1  3  1  0  0  0  0
  1  4  1  0  0  0  0
  1  5  1  0  0  0  0
  5  6  1  0  0  0  0
  5  7  1  0  0  0  0
  5  8  1  0  0  0  0
  8  9  1  0  0  0  0
  8 10  1  0  0  0  0
  8 11  1  0  0  0  0
 11 12  1  0  0  0  0
 11 13  1  0  0  0  0
 11 14  1  0  0  0  0
 14 15  1  0  0  0  0
 14 16  1  0  0  0  0
 14 17  1  0  0  0  0
 17 18  1  0  0  0  0
 17 19  1  0  0  0  0
 17 20  1  0  0  0  0
M  END
> <VConfSearch Rank>
667

> <Conf_Id>
2

> <Delta U+W>
0.994

> <U+W>
-10.784

> <U>
47.562

> <W>
-58.346

> <W(PB)>
-60.221

> <W(SA)>
1.875

> <Valence>
2.149

> <Coulomb>
45.034

> <VdW>
0.378

> <VdW6>
-5.599

> <VdW12>
5.977

> <Bond>
0.185

> <Angle>
0.935

> <Pdih>
1.028

> <Idih>
0.000

> <Tether>
0.000

$$$$
VeraChem MOL file


 20 19  0  0  0  0  0  0  0  0999 V2000     
   21.2381   21.0432   23.3984 N   0  3  0  0  0  0  0  0  0  0  0  0
   21.4640   21.0222   24.3977 H   0  0  0  0  0  0  0  0  0  0  0  0
   21.9642   20.5086   22.9127 H   0  0  0  0  0  0  0  0  0  0  0  0
   21.3272   22.0179   23.0927 H   0  0  0  0  0  0  0  0  0  0  0  0
   19.8540   20.4897   23.1215 C   0  0  0  0  0  0  0  0  0  0  0  0
   19.6638   20.5711   22.0481 H   0  0  0  0  0  0  0  0  0  0  0  0
   19.1314   21.1235   23.6428 H   0  0  0  0  0  0  0  0  0  0  0  0
   19.6701   19.0265   23.5724 C   0  0  0  0  0  0  0  0  0  0  0  0
   19.8299   18.9620   24.6568 H   0  0  0  0  0  0  0  0  0  0  0  0
   18.6256   18.7336   23.4060 H   0  0  0  0  0  0  0  0  0  0  0  0
   20.6125   18.0230   22.8570 C   0  0  0  0  0  0  0  0  0  0  0  0
   20.3874   17.0092   23.2158 H   0  0  0  0  0  0  0  0  0  0  0  0
   21.6500   18.2207   23.1582 H   0  0  0  0  0  0  0  0  0  0  0  0
   20.5271   18.0409   21.3092 C   0  0  0  0  0  0  0  0  0  0  0  0
   20.8421   19.0193   20.9221 H   0  0  0  0  0  0  0  0  0  0  0  0
   21.2469   17.3127   20.9099 H   0  0  0  0  0  0  0  0  0  0  0  0
   19.1203   17.6975   20.7689 C   0  0  0  0  0  0  0  0  0  0  0  0
   18.3843   18.4619   21.0475 H   0  0  0  0  0  0  0  0  0  0  0  0
   19.1337   17.6361   19.6731 H   0  0  0  0  0  0  0  0  0  0  0  0
   18.7745   16.7298   21.1550 H   0  0  0  0  0  0  0  0  0  0  0  0
  1  2  1  0  0  0  0
  1  3  1  0  0  0  0
  1  4  1  0  0  0  0
  1  5  1  0  0  0  0
  5  6  1  0  0  0  0
  5  7  1  0  0  0  0
  5  8  1  0  0  0  0
  8  9  1  0  0  0  0
  8 10  1  0  0  0  0
  8 11  1  0  0  0  0
 11 12  1  0  0  0  0
 11 13  1  0  0  0  0
 11 14  1  0  0  0  0
 14 15  1  0  0  0  0
 14 16  1  0  0  0  0
 14 17  1  0  0  0  0
 17 18  1  0  0  0  0
 17 19  1  0  0  0  0
 17 20  1  0  0  0  0
M  END
> <VConfSearch Rank>
668

> <Conf_Id>
1

> <Delta U+W>
1.032

> <U+W>
-10.746

> <U>
47.562

> <W>
-58.308

> <W(PB)>
-60.184

> <W(SA)>
1.877

> <Valence>
2.149

> <Coulomb>
45.035

> <VdW>
0.378

> <VdW6>
-5.599

> <VdW12>
5.978

> <Bond>
0.185

> <Angle>
0.935

> <Pdih>
1.028

> <Idih>
0.000

> <Tether>
0.000

$$$$
VeraChem MOL file


 20 19  0  0  0  0  0  0  0  0999 V2000     
   18.6769   17.5871   23.3103 N   0  3  0  0  0  0  0  0  0  0  0  0
   18.6586   17.3943   24.3166 H   0  0  0  0  0  0  0  0  0  0  0  0
   18.1995   18.4812   23.1645 H   0  0  0  0  0  0  0  0  0  0  0  0
   18.1057   16.8655   22.8583 H   0  0  0  0  0  0  0  0  0  0  0  0
   20.0919   17.6083   22.7654 C   0  0  0  0  0  0  0  0  0  0  0  0
   20.0355   17.7866   21.6904 H   0  0  0  0  0  0  0  0  0  0  0  0
   20.5179   16.6130   22.9190 H   0  0  0  0  0  0  0  0  0  0  0  0
   21.0032   18.6576   23.4371 C   0  0  0  0  0  0  0  0  0  0  0  0
   21.0249   18.4495   24.5150 H   0  0  0  0  0  0  0  0  0  0  0  0
   22.0343   18.5228   23.0844 H   0  0  0  0  0  0  0  0  0  0  0  0
   20.5671   20.1316   23.2191 C   0  0  0  0  0  0  0  0  0  0  0  0
   20.9898   20.7319   24.0367 H   0  0  0  0  0  0  0  0  0  0  0  0
   19.4784   20.2319   23.3162 H   0  0  0  0  0  0  0  0  0  0  0  0
   21.0407   20.7663   21.8862 C   0  0  0  0  0  0  0  0  0  0  0  0
   20.7540   21.8273   21.8891 H   0  0  0  0  0  0  0  0  0  0  0  0
   22.1385   20.7499   21.8372 H   0  0  0  0  0  0  0  0  0  0  0  0
   20.4600   20.1051   20.6167 C   0  0  0  0  0  0  0  0  0  0  0  0
   19.3693   20.0016   20.6839 H   0  0  0  0  0  0  0  0  0  0  0  0
   20.6848   20.7145   19.7319 H   0  0  0  0  0  0  0  0  0  0  0  0
   20.8983   19.1147   20.4459 H   0  0  0  0  0  0  0  0  0  0  0  0
  1  2  1  0  0  0  0
  1  3  1  0  0  0  0
  1  4  1  0  0  0  0
  1  5  1  0  0  0  0
  5  6  1  0  0  0  0
  5  7  1  0  0  0  0
  5  8  1  0  0  0  0
  8  9  1  0  0  0  0
  8 10  1  0  0  0  0
  8 11  1  0  0  0  0
 11 12  1  0  0  0  0
 11 13  1  0  0  0  0
 11 14  1  0  0  0  0
 14 15  1  0  0  0  0
 14 16  1  0  0  0  0
 14 17  1  0  0  0  0
 17 18  1  0  0  0  0
 17 19  1  0  0  0  0
 17 20  1  0  0  0  0
M  END
> <VConfSearch Rank>
669

> <Conf_Id>
80

> <Delta U+W>
2.920

> <U+W>
-8.857

> <U>
49.434

> <W>
-58.292

> <W(PB)>
-60.170

> <W(SA)>
1.879

> <Valence>
3.798

> <Coulomb>
45.253

> <VdW>
0.384

> <VdW6>
-5.595

> <VdW12>
5.979

> <Bond>
0.198

> <Angle>
1.368

> <Pdih>
2.231

> <Idih>
0.000

> <Tether>
0.000

$$$$
VeraChem MOL file


 20 19  0  0  0  0  0  0  0  0999 V2000     
   18.2091   18.4144   21.5487 N   0  3  0  0  0  0  0  0  0  0  0  0
   17.7647   17.5861   21.9566 H   0  0  0  0  0  0  0  0  0  0  0  0
   17.5229   18.8401   20.9168 H   0  0  0  0  0  0  0  0  0  0  0  0
   18.9865   18.0862   20.9684 H   0  0  0  0  0  0  0  0  0  0  0  0
   18.6734   19.3884   22.6143 C   0  0  0  0  0  0  0  0  0  0  0  0
   17.7878   19.7240   23.1607 H   0  0  0  0  0  0  0  0  0  0  0  0
   19.1060   20.2551   22.1120 H   0  0  0  0  0  0  0  0  0  0  0  0
   19.6849   18.7854   23.6122 C   0  0  0  0  0  0  0  0  0  0  0  0
   19.8703   19.5043   24.4211 H   0  0  0  0  0  0  0  0  0  0  0  0
   19.2159   17.9134   24.0872 H   0  0  0  0  0  0  0  0  0  0  0  0
   21.0359   18.3487   22.9841 C   0  0  0  0  0  0  0  0  0  0  0  0
   20.8713   17.8445   22.0232 H   0  0  0  0  0  0  0  0  0  0  0  0
   21.4818   17.5885   23.6404 H   0  0  0  0  0  0  0  0  0  0  0  0
   22.0788   19.4835   22.8150 C   0  0  0  0  0  0  0  0  0  0  0  0
   22.3119   19.9218   23.7955 H   0  0  0  0  0  0  0  0  0  0  0  0
   23.0160   19.0386   22.4522 H   0  0  0  0  0  0  0  0  0  0  0  0
   21.6578   20.6039   21.8386 C   0  0  0  0  0  0  0  0  0  0  0  0
   20.8631   21.2275   22.2648 H   0  0  0  0  0  0  0  0  0  0  0  0
   22.5081   21.2649   21.6265 H   0  0  0  0  0  0  0  0  0  0  0  0
   21.3084   20.1906   20.8837 H   0  0  0  0  0  0  0  0  0  0  0  0
  1  2  1  0  0  0  0
  1  3  1  0  0  0  0
  1  4  1  0  0  0  0
  1  5  1  0  0  0  0
  5  6  1  0  0  0  0
  5  7  1  0  0  0  0
  5  8  1  0  0  0  0
  8  9  1  0  0  0  0
  8 10  1  0  0  0  0
  8 11  1  0  0  0  0
 11 12  1  0  0  0  0
 11 13  1  0  0  0  0
 11 14  1  0  0  0  0
 14 15  1  0  0  0  0
 14 16  1  0  0  0  0
 14 17  1  0  0  0  0
 17 18  1  0  0  0  0
 17 19  1  0  0  0  0
 17 20  1  0  0  0  0
M  END
> <VConfSearch Rank>
670

> <Conf_Id>
65

> <Delta U+W>
2.949

> <U+W>
-8.829

> <U>
49.435

> <W>
-58.263

> <W(PB)>
-60.125

> <W(SA)>
1.862

> <Valence>
3.797

> <Coulomb>
45.253

> <VdW>
0.384

> <VdW6>
-5.596

> <VdW12>
5.980

> <Bond>
0.198

> <Angle>
1.369

> <Pdih>
2.230

> <Idih>
0.000

> <Tether>
0.000

$$$$
VeraChem MOL file


 20 19  0  0  0  0  0  0  0  0999 V2000     
   21.7201   18.4843   21.5890 N   0  3  0  0  0  0  0  0  0  0  0  0
   22.7375   18.5996   21.6472 H   0  0  0  0  0  0  0  0  0  0  0  0
   21.3962   18.1588   22.5048 H   0  0  0  0  0  0  0  0  0  0  0  0
   21.5435   17.7306   20.9173 H   0  0  0  0  0  0  0  0  0  0  0  0
   21.0292   19.7720   21.1838 C   0  0  0  0  0  0  0  0  0  0  0  0
   21.4238   20.0512   20.2030 H   0  0  0  0  0  0  0  0  0  0  0  0
   21.3030   20.5558   21.8951 H   0  0  0  0  0  0  0  0  0  0  0  0
   19.4938   19.6582   21.0949 C   0  0  0  0  0  0  0  0  0  0  0  0
   19.1389   20.4512   20.4233 H   0  0  0  0  0  0  0  0  0  0  0  0
   19.2186   18.7119   20.6105 H   0  0  0  0  0  0  0  0  0  0  0  0
   18.7404   19.8081   22.4439 C   0  0  0  0  0  0  0  0  0  0  0  0
   17.6644   19.7620   22.2256 H   0  0  0  0  0  0  0  0  0  0  0  0
   18.9123   20.8107   22.8594 H   0  0  0  0  0  0  0  0  0  0  0  0
   19.0603   18.7287   23.5093 C   0  0  0  0  0  0  0  0  0  0  0  0
   18.1422   18.5106   24.0731 H   0  0  0  0  0  0  0  0  0  0  0  0
   19.3412   17.7832   23.0262 H   0  0  0  0  0  0  0  0  0  0  0  0
   20.1414   19.1758   24.5218 C   0  0  0  0  0  0  0  0  0  0  0  0
   21.0729   19.4813   24.0333 H   0  0  0  0  0  0  0  0  0  0  0  0
   19.7859   20.0291   25.1141 H   0  0  0  0  0  0  0  0  0  0  0  0
   20.3759   18.3631   25.2216 H   0  0  0  0  0  0  0  0  0  0  0  0
  1  2  1  0  0  0  0
  1  3  1  0  0  0  0
  1  4  1  0  0  0  0
  1  5  1  0  0  0  0
  5  6  1  0  0  0  0
  5  7  1  0  0  0  0
  5  8  1  0  0  0  0
  8  9  1  0  0  0  0
  8 10  1  0  0  0  0
  8 11  1  0  0  0  0
 11 12  1  0  0  0  0
 11 13  1  0  0  0  0
 11 14  1  0  0  0  0
 14 15  1  0  0  0  0
 14 16  1  0  0  0  0
 14 17  1  0  0  0  0
 17 18  1  0  0  0  0
 17 19  1  0  0  0  0
 17 20  1  0  0  0  0
M  END
> <VConfSearch Rank>
671

> <Conf_Id>
77

> <Delta U+W>
5.366

> <U+W>
-6.412

> <U>
51.542

> <W>
-57.954

> <W(PB)>
-59.811

> <W(SA)>
1.857

> <Valence>
5.347

> <Coulomb>
45.870

> <VdW>
0.325

> <VdW6>
-6.161

> <VdW12>
6.486

> <Bond>
0.201

> <Angle>
1.484

> <Pdih>
3.662

> <Idih>
0.000

> <Tether>
0.000

$$$$
VeraChem MOL file


 20 19  0  0  0  0  0  0  0  0999 V2000     
   18.3489   18.3642   22.3960 N   0  3  0  0  0  0  0  0  0  0  0  0
   17.9937   17.9839   23.2789 H   0  0  0  0  0  0  0  0  0  0  0  0
   18.5650   19.3530   22.5548 H   0  0  0  0  0  0  0  0  0  0  0  0
   17.5769   18.3240   21.7221 H   0  0  0  0  0  0  0  0  0  0  0  0
   19.5657   17.6040   21.9051 C   0  0  0  0  0  0  0  0  0  0  0  0
   19.8621   18.0065   20.9328 H   0  0  0  0  0  0  0  0  0  0  0  0
   19.2570   16.5649   21.7622 H   0  0  0  0  0  0  0  0  0  0  0  0
   20.7633   17.6443   22.8760 C   0  0  0  0  0  0  0  0  0  0  0  0
   20.4108   17.5088   23.9071 H   0  0  0  0  0  0  0  0  0  0  0  0
   21.3968   16.7735   22.6605 H   0  0  0  0  0  0  0  0  0  0  0  0
   21.6528   18.9127   22.7766 C   0  0  0  0  0  0  0  0  0  0  0  0
   22.1122   18.9708   21.7801 H   0  0  0  0  0  0  0  0  0  0  0  0
   22.4891   18.7827   23.4776 H   0  0  0  0  0  0  0  0  0  0  0  0
   20.9465   20.2501   23.1154 C   0  0  0  0  0  0  0  0  0  0  0  0
   20.1339   20.0841   23.8354 H   0  0  0  0  0  0  0  0  0  0  0  0
   21.6652   20.9055   23.6275 H   0  0  0  0  0  0  0  0  0  0  0  0
   20.4324   21.0000   21.8635 C   0  0  0  0  0  0  0  0  0  0  0  0
   19.8919   21.9107   22.1528 H   0  0  0  0  0  0  0  0  0  0  0  0
   21.2714   21.3033   21.2238 H   0  0  0  0  0  0  0  0  0  0  0  0
   19.7603   20.3868   21.2537 H   0  0  0  0  0  0  0  0  0  0  0  0
  1  2  1  0  0  0  0
  1  3  1  0  0  0  0
  1  4  1  0  0  0  0
  1  5  1  0  0  0  0
  5  6  1  0  0  0  0
  5  7  1  0  0  0  0
  5  8  1  0  0  0  0
  8  9  1  0  0  0  0
  8 10  1  0  0  0  0
  8 11  1  0  0  0  0
 11 12  1  0  0  0  0
 11 13  1  0  0  0  0
 11 14  1  0  0  0  0
 14 15  1  0  0  0  0
 14 16  1  0  0  0  0
 14 17  1  0  0  0  0
 17 18  1  0  0  0  0
 17 19  1  0  0  0  0
 17 20  1  0  0  0  0
M  END
> <VConfSearch Rank>
672

> <Conf_Id>
67

> <Delta U+W>
5.353

> <U+W>
-6.425

> <U>
51.541

> <W>
-57.966

> <W(PB)>
-59.821

> <W(SA)>
1.855

> <Valence>
5.347

> <Coulomb>
45.870

> <VdW>
0.325

> <VdW6>
-6.161

> <VdW12>
6.486

> <Bond>
0.201

> <Angle>
1.485

> <Pdih>
3.662

> <Idih>
0.000

> <Tether>
0.000

$$$$
VeraChem MOL file


 20 19  0  0  0  0  0  0  0  0999 V2000     
   20.6264   17.7714   19.5889 N   0  3  0  0  0  0  0  0  0  0  0  0
   20.6512   16.7936   19.8949 H   0  0  0  0  0  0  0  0  0  0  0  0
   20.1775   17.7829   18.6669 H   0  0  0  0  0  0  0  0  0  0  0  0
   21.5975   18.0683   19.4500 H   0  0  0  0  0  0  0  0  0  0  0  0
   19.8993   18.6572   20.5804 C   0  0  0  0  0  0  0  0  0  0  0  0
   18.8675   18.3032   20.6557 H   0  0  0  0  0  0  0  0  0  0  0  0
   19.8849   19.6736   20.1776 H   0  0  0  0  0  0  0  0  0  0  0  0
   20.5481   18.6624   21.9762 C   0  0  0  0  0  0  0  0  0  0  0  0
   20.5750   17.6375   22.3699 H   0  0  0  0  0  0  0  0  0  0  0  0
   21.5888   19.0032   21.8935 H   0  0  0  0  0  0  0  0  0  0  0  0
   19.7776   19.5760   22.9551 C   0  0  0  0  0  0  0  0  0  0  0  0
   18.7355   19.2353   23.0313 H   0  0  0  0  0  0  0  0  0  0  0  0
   19.7482   20.5993   22.5555 H   0  0  0  0  0  0  0  0  0  0  0  0
   20.4202   19.5890   24.3602 C   0  0  0  0  0  0  0  0  0  0  0  0
   20.4497   18.5674   24.7646 H   0  0  0  0  0  0  0  0  0  0  0  0
   21.4622   19.9313   24.2889 H   0  0  0  0  0  0  0  0  0  0  0  0
   19.6470   20.5029   25.3348 C   0  0  0  0  0  0  0  0  0  0  0  0
   18.6092   20.1652   25.4539 H   0  0  0  0  0  0  0  0  0  0  0  0
   20.1181   20.4989   26.3264 H   0  0  0  0  0  0  0  0  0  0  0  0
   19.6298   21.5398   24.9746 H   0  0  0  0  0  0  0  0  0  0  0  0
  1  2  1  0  0  0  0
  1  3  1  0  0  0  0
  1  4  1  0  0  0  0
  1  5  1  0  0  0  0
  5  6  1  0  0  0  0
  5  7  1  0  0  0  0
  5  8  1  0  0  0  0
  8  9  1  0  0  0  0
  8 10  1  0  0  0  0
  8 11  1  0  0  0  0
 11 12  1  0  0  0  0
 11 13  1  0  0  0  0
 11 14  1  0  0  0  0
 14 15  1  0  0  0  0
 14 16  1  0  0  0  0
 14 17  1  0  0  0  0
 17 18  1  0  0  0  0
 17 19  1  0  0  0  0
 17 20  1  0  0  0  0
M  END
> <VConfSearch Rank>
673

> <Conf_Id>
72

> <Delta U+W>
0.000

> <U+W>
-11.778

> <U>
45.772

> <W>
-57.550

> <W(PB)>
-59.511

> <W(SA)>
1.961

> <Valence>
1.299

> <Coulomb>
44.177

> <VdW>
0.297

> <VdW6>
-3.490

> <VdW12>
3.786

> <Bond>
0.096

> <Angle>
0.381

> <Pdih>
0.822

> <Idih>
0.000

> <Tether>
0.000

$$$$
VeraChem MOL file


 20 19  0  0  0  0  0  0  0  0999 V2000     
   17.7959   18.8818   20.5781 N   0  3  0  0  0  0  0  0  0  0  0  0
   17.4171   19.7925   20.8567 H   0  0  0  0  0  0  0  0  0  0  0  0
   18.3186   19.0260   19.7085 H   0  0  0  0  0  0  0  0  0  0  0  0
   16.9947   18.2846   20.3477 H   0  0  0  0  0  0  0  0  0  0  0  0
   18.6593   18.2712   21.6636 C   0  0  0  0  0  0  0  0  0  0  0  0
   19.0018   17.2940   21.3124 H   0  0  0  0  0  0  0  0  0  0  0  0
   18.0334   18.1183   22.5469 H   0  0  0  0  0  0  0  0  0  0  0  0
   19.8728   19.1429   22.0337 C   0  0  0  0  0  0  0  0  0  0  0  0
   20.4900   19.3071   21.1404 H   0  0  0  0  0  0  0  0  0  0  0  0
   19.5183   20.1262   22.3675 H   0  0  0  0  0  0  0  0  0  0  0  0
   20.7257   18.4810   23.1416 C   0  0  0  0  0  0  0  0  0  0  0  0
   21.0067   17.4684   22.8198 H   0  0  0  0  0  0  0  0  0  0  0  0
   20.1210   18.3588   24.0510 H   0  0  0  0  0  0  0  0  0  0  0  0
   22.0164   19.2661   23.4799 C   0  0  0  0  0  0  0  0  0  0  0  0
   22.6101   18.6779   24.1936 H   0  0  0  0  0  0  0  0  0  0  0  0
   22.6357   19.3699   22.5779 H   0  0  0  0  0  0  0  0  0  0  0  0
   21.7458   20.6613   24.0879 C   0  0  0  0  0  0  0  0  0  0  0  0
   21.1046   20.5878   24.9759 H   0  0  0  0  0  0  0  0  0  0  0  0
   22.6872   21.1365   24.3928 H   0  0  0  0  0  0  0  0  0  0  0  0
   21.2590   21.3287   23.3661 H   0  0  0  0  0  0  0  0  0  0  0  0
  1  2  1  0  0  0  0
  1  3  1  0  0  0  0
  1  4  1  0  0  0  0
  1  5  1  0  0  0  0
  5  6  1  0  0  0  0
  5  7  1  0  0  0  0
  5  8  1  0  0  0  0
  8  9  1  0  0  0  0
  8 10  1  0  0  0  0
  8 11  1  0  0  0  0
 11 12  1  0  0  0  0
 11 13  1  0  0  0  0
 11 14  1  0  0  0  0
 14 15  1  0  0  0  0
 14 16  1  0  0  0  0
 14 17  1  0  0  0  0
 17 18  1  0  0  0  0
 17 19  1  0  0  0  0
 17 20  1  0  0  0  0
M  END
> <VConfSearch Rank>
674

> <Conf_Id>
42

> <Delta U+W>
0.508

> <U+W>
-11.270

> <U>
46.486

> <W>
-57.756

> <W(PB)>
-59.705

> <W(SA)>
1.949

> <Valence>
1.806

> <Coulomb>
44.248

> <VdW>
0.433

> <VdW6>
-4.089

> <VdW12>
4.522

> <Bond>
0.131

> <Angle>
0.628

> <Pdih>
1.047

> <Idih>
0.000

> <Tether>
0.000

$$$$
VeraChem MOL file


 20 19  0  0  0  0  0  0  0  0999 V2000     
   17.7598   17.5910   21.4200 N   0  3  0  0  0  0  0  0  0  0  0  0
   17.1025   17.8496   22.1626 H   0  0  0  0  0  0  0  0  0  0  0  0
   17.6461   18.2750   20.6653 H   0  0  0  0  0  0  0  0  0  0  0  0
   17.4496   16.6863   21.0503 H   0  0  0  0  0  0  0  0  0  0  0  0
   19.1884   17.5339   21.9225 C   0  0  0  0  0  0  0  0  0  0  0  0
   19.8268   17.2247   21.0904 H   0  0  0  0  0  0  0  0  0  0  0  0
   19.2422   16.7668   22.6997 H   0  0  0  0  0  0  0  0  0  0  0  0
   19.6862   18.8772   22.4854 C   0  0  0  0  0  0  0  0  0  0  0  0
   19.6111   19.6428   21.7029 H   0  0  0  0  0  0  0  0  0  0  0  0
   19.0329   19.1917   23.3102 H   0  0  0  0  0  0  0  0  0  0  0  0
   21.1455   18.7720   22.9880 C   0  0  0  0  0  0  0  0  0  0  0  0
   21.8062   18.5023   22.1523 H   0  0  0  0  0  0  0  0  0  0  0  0
   21.2154   17.9501   23.7141 H   0  0  0  0  0  0  0  0  0  0  0  0
   21.6627   20.0675   23.6594 C   0  0  0  0  0  0  0  0  0  0  0  0
   21.0184   20.3279   24.5108 H   0  0  0  0  0  0  0  0  0  0  0  0
   22.6604   19.8738   24.0777 H   0  0  0  0  0  0  0  0  0  0  0  0
   21.7538   21.2683   22.6902 C   0  0  0  0  0  0  0  0  0  0  0  0
   20.7624   21.5782   22.3372 H   0  0  0  0  0  0  0  0  0  0  0  0
   22.2098   22.1322   23.1908 H   0  0  0  0  0  0  0  0  0  0  0  0
   22.3701   21.0241   21.8153 H   0  0  0  0  0  0  0  0  0  0  0  0
  1  2  1  0  0  0  0
  1  3  1  0  0  0  0
  1  4  1  0  0  0  0
  1  5  1  0  0  0  0
  5  6  1  0  0  0  0
  5  7  1  0  0  0  0
  5  8  1  0  0  0  0
  8  9  1  0  0  0  0
  8 10  1  0  0  0  0
  8 11  1  0  0  0  0
 11 12  1  0  0  0  0
 11 13  1  0  0  0  0
 11 14  1  0  0  0  0
 14 15  1  0  0  0  0
 14 16  1  0  0  0  0
 14 17  1  0  0  0  0
 17 18  1  0  0  0  0
 17 19  1  0  0  0  0
 17 20  1  0  0  0  0
M  END
> <VConfSearch Rank>
675

> <Conf_Id>
41

> <Delta U+W>
0.515

> <U+W>
-11.263

> <U>
46.486

> <W>
-57.749

> <W(PB)>
-59.685

> <W(SA)>
1.936

> <Valence>
1.806

> <Coulomb>
44.248

> <VdW>
0.433

> <VdW6>
-4.089

> <VdW12>
4.522

> <Bond>
0.131

> <Angle>
0.628

> <Pdih>
1.047

> <Idih>
0.000

> <Tether>
0.000

$$$$
VeraChem MOL file


 20 19  0  0  0  0  0  0  0  0999 V2000     
   22.7704   18.2505   22.4692 N   0  3  0  0  0  0  0  0  0  0  0  0
   23.7603   18.3673   22.7100 H   0  0  0  0  0  0  0  0  0  0  0  0
   22.3463   17.6910   23.2149 H   0  0  0  0  0  0  0  0  0  0  0  0
   22.7366   17.6890   21.6126 H   0  0  0  0  0  0  0  0  0  0  0  0
   22.0720   19.5858   22.2974 C   0  0  0  0  0  0  0  0  0  0  0  0
   22.6051   20.1399   21.5200 H   0  0  0  0  0  0  0  0  0  0  0  0
   22.1647   20.1412   23.2346 H   0  0  0  0  0  0  0  0  0  0  0  0
   20.5849   19.4676   21.9095 C   0  0  0  0  0  0  0  0  0  0  0  0
   20.2097   20.4762   21.6960 H   0  0  0  0  0  0  0  0  0  0  0  0
   20.4938   18.8945   20.9773 H   0  0  0  0  0  0  0  0  0  0  0  0
   19.7263   18.8141   23.0217 C   0  0  0  0  0  0  0  0  0  0  0  0
   19.8043   19.4055   23.9445 H   0  0  0  0  0  0  0  0  0  0  0  0
   20.1283   17.8198   23.2571 H   0  0  0  0  0  0  0  0  0  0  0  0
   18.2357   18.6533   22.6354 C   0  0  0  0  0  0  0  0  0  0  0  0
   18.1516   18.0507   21.7202 H   0  0  0  0  0  0  0  0  0  0  0  0
   17.7268   18.0834   23.4255 H   0  0  0  0  0  0  0  0  0  0  0  0
   17.5001   19.9991   22.4417 C   0  0  0  0  0  0  0  0  0  0  0  0
   17.8917   20.5535   21.5801 H   0  0  0  0  0  0  0  0  0  0  0  0
   16.4300   19.8296   22.2648 H   0  0  0  0  0  0  0  0  0  0  0  0
   17.5959   20.6337   23.3323 H   0  0  0  0  0  0  0  0  0  0  0  0
  1  2  1  0  0  0  0
  1  3  1  0  0  0  0
  1  4  1  0  0  0  0
  1  5  1  0  0  0  0
  5  6  1  0  0  0  0
  5  7  1  0  0  0  0
  5  8  1  0  0  0  0
  8  9  1  0  0  0  0
  8 10  1  0  0  0  0
  8 11  1  0  0  0  0
 11 12  1  0  0  0  0
 11 13  1  0  0  0  0
 11 14  1  0  0  0  0
 14 15  1  0  0  0  0
 14 16  1  0  0  0  0
 14 17  1  0  0  0  0
 17 18  1  0  0  0  0
 17 19  1  0  0  0  0
 17 20  1  0  0  0  0
M  END
> <VConfSearch Rank>
676

> <Conf_Id>
33

> <Delta U+W>
0.703

> <U+W>
-11.075

> <U>
47.080

> <W>
-58.154

> <W(PB)>
-60.053

> <W(SA)>
1.899

> <Valence>
1.943

> <Coulomb>
44.572

> <VdW>
0.565

> <VdW6>
-4.575

> <VdW12>
5.139

> <Bond>
0.158

> <Angle>
0.700

> <Pdih>
1.085

> <Idih>
0.000

> <Tether>
0.000

$$$$
VeraChem MOL file


 20 19  0  0  0  0  0  0  0  0999 V2000     
   20.3123   20.3975   20.0123 N   0  3  0  0  0  0  0  0  0  0  0  0
   20.5385   21.2119   19.4318 H   0  0  0  0  0  0  0  0  0  0  0  0
   20.4526   19.5672   19.4282 H   0  0  0  0  0  0  0  0  0  0  0  0
   19.3120   20.4521   20.2256 H   0  0  0  0  0  0  0  0  0  0  0  0
   21.1569   20.3518   21.2712 C   0  0  0  0  0  0  0  0  0  0  0  0
   20.9785   21.2720   21.8340 H   0  0  0  0  0  0  0  0  0  0  0  0
   22.2064   20.3393   20.9646 H   0  0  0  0  0  0  0  0  0  0  0  0
   20.8743   19.1314   22.1693 C   0  0  0  0  0  0  0  0  0  0  0  0
   21.0375   18.2091   21.5963 H   0  0  0  0  0  0  0  0  0  0  0  0
   21.6117   19.1311   22.9816 H   0  0  0  0  0  0  0  0  0  0  0  0
   19.4425   19.1431   22.7618 C   0  0  0  0  0  0  0  0  0  0  0  0
   18.7094   19.1802   21.9452 H   0  0  0  0  0  0  0  0  0  0  0  0
   19.2942   20.0579   23.3523 H   0  0  0  0  0  0  0  0  0  0  0  0
   19.1277   17.9059   23.6377 C   0  0  0  0  0  0  0  0  0  0  0  0
   18.0662   17.9361   23.9210 H   0  0  0  0  0  0  0  0  0  0  0  0
   19.2615   16.9885   23.0474 H   0  0  0  0  0  0  0  0  0  0  0  0
   19.9826   17.8267   24.9232 C   0  0  0  0  0  0  0  0  0  0  0  0
   19.8909   18.7459   25.5162 H   0  0  0  0  0  0  0  0  0  0  0  0
   19.6541   16.9887   25.5515 H   0  0  0  0  0  0  0  0  0  0  0  0
   21.0437   17.6692   24.6940 H   0  0  0  0  0  0  0  0  0  0  0  0
  1  2  1  0  0  0  0
  1  3  1  0  0  0  0
  1  4  1  0  0  0  0
  1  5  1  0  0  0  0
  5  6  1  0  0  0  0
  5  7  1  0  0  0  0
  5  8  1  0  0  0  0
  8  9  1  0  0  0  0
  8 10  1  0  0  0  0
  8 11  1  0  0  0  0
 11 12  1  0  0  0  0
 11 13  1  0  0  0  0
 11 14  1  0  0  0  0
 14 15  1  0  0  0  0
 14 16  1  0  0  0  0
 14 17  1  0  0  0  0
 17 18  1  0  0  0  0
 17 19  1  0  0  0  0
 17 20  1  0  0  0  0
M  END
> <VConfSearch Rank>
677

> <Conf_Id>
24

> <Delta U+W>
0.847

> <U+W>
-10.931

> <U>
47.080

> <W>
-58.011

> <W(PB)>
-59.914

> <W(SA)>
1.903

> <Valence>
1.943

> <Coulomb>
44.572

> <VdW>
0.565

> <VdW6>
-4.575

> <VdW12>
5.140

> <Bond>
0.158

> <Angle>
0.700

> <Pdih>
1.085

> <Idih>
0.000

> <Tether>
0.000

$$$$
VeraChem MOL file


 20 19  0  0  0  0  0  0  0  0999 V2000     
   17.7371   18.2860   21.5182 N   0  3  0  0  0  0  0  0  0  0  0  0
   17.5747   17.4226   20.9893 H   0  0  0  0  0  0  0  0  0  0  0  0
   17.3843   18.1244   22.4667 H   0  0  0  0  0  0  0  0  0  0  0  0
   17.1456   19.0085   21.0958 H   0  0  0  0  0  0  0  0  0  0  0  0
   19.2002   18.6803   21.5173 C   0  0  0  0  0  0  0  0  0  0  0  0
   19.5155   18.8072   20.4782 H   0  0  0  0  0  0  0  0  0  0  0  0
   19.7706   17.8550   21.9516 H   0  0  0  0  0  0  0  0  0  0  0  0
   19.4788   19.9745   22.3048 C   0  0  0  0  0  0  0  0  0  0  0  0
   18.8698   20.7870   21.8869 H   0  0  0  0  0  0  0  0  0  0  0  0
   19.1542   19.8513   23.3459 H   0  0  0  0  0  0  0  0  0  0  0  0
   20.9694   20.3940   22.2605 C   0  0  0  0  0  0  0  0  0  0  0  0
   21.0942   21.3260   22.8290 H   0  0  0  0  0  0  0  0  0  0  0  0
   21.2415   20.6343   21.2233 H   0  0  0  0  0  0  0  0  0  0  0  0
   21.9607   19.3328   22.8031 C   0  0  0  0  0  0  0  0  0  0  0  0
   21.9268   18.4283   22.1806 H   0  0  0  0  0  0  0  0  0  0  0  0
   22.9824   19.7262   22.7066 H   0  0  0  0  0  0  0  0  0  0  0  0
   21.7099   18.9564   24.2810 C   0  0  0  0  0  0  0  0  0  0  0  0
   22.4915   18.2756   24.6424 H   0  0  0  0  0  0  0  0  0  0  0  0
   21.7182   19.8472   24.9223 H   0  0  0  0  0  0  0  0  0  0  0  0
   20.7457   18.4488   24.4094 H   0  0  0  0  0  0  0  0  0  0  0  0
  1  2  1  0  0  0  0
  1  3  1  0  0  0  0
  1  4  1  0  0  0  0
  1  5  1  0  0  0  0
  5  6  1  0  0  0  0
  5  7  1  0  0  0  0
  5  8  1  0  0  0  0
  8  9  1  0  0  0  0
  8 10  1  0  0  0  0
  8 11  1  0  0  0  0
 11 12  1  0  0  0  0
 11 13  1  0  0  0  0
 11 14  1  0  0  0  0
 14 15  1  0  0  0  0
 14 16  1  0  0  0  0
 14 17  1  0  0  0  0
 17 18  1  0  0  0  0
 17 19  1  0  0  0  0
 17 20  1  0  0  0  0
M  END
> <VConfSearch Rank>
678

> <Conf_Id>
64

> <Delta U+W>
0.707

> <U+W>
-11.070

> <U>
47.077

> <W>
-58.148

> <W(PB)>
-60.054

> <W(SA)>
1.906

> <Valence>
2.039

> <Coulomb>
44.655

> <VdW>
0.383

> <VdW6>
-4.912

> <VdW12>
5.295

> <Bond>
0.159

> <Angle>
0.856

> <Pdih>
1.024

> <Idih>
0.000

> <Tether>
0.000

$$$$
VeraChem MOL file


 20 19  0  0  0  0  0  0  0  0999 V2000     
   21.6100   21.3464   21.9079 N   0  3  0  0  0  0  0  0  0  0  0  0
   21.1961   22.2060   22.2822 H   0  0  0  0  0  0  0  0  0  0  0  0
   22.3657   21.0741   22.5443 H   0  0  0  0  0  0  0  0  0  0  0  0
   22.0479   21.5923   21.0139 H   0  0  0  0  0  0  0  0  0  0  0  0
   20.5806   20.2460   21.7469 C   0  0  0  0  0  0  0  0  0  0  0  0
   21.0838   19.3757   21.3176 H   0  0  0  0  0  0  0  0  0  0  0  0
   19.8247   20.5915   21.0366 H   0  0  0  0  0  0  0  0  0  0  0  0
   19.9034   19.8520   23.0731 C   0  0  0  0  0  0  0  0  0  0  0  0
   20.6624   19.5137   23.7900 H   0  0  0  0  0  0  0  0  0  0  0  0
   19.4369   20.7419   23.5162 H   0  0  0  0  0  0  0  0  0  0  0  0
   18.8210   18.7586   22.8919 C   0  0  0  0  0  0  0  0  0  0  0  0
   18.0078   19.1612   22.2721 H   0  0  0  0  0  0  0  0  0  0  0  0
   18.3730   18.5353   23.8699 H   0  0  0  0  0  0  0  0  0  0  0  0
   19.3283   17.4400   22.2538 C   0  0  0  0  0  0  0  0  0  0  0  0
   18.4794   16.7488   22.1564 H   0  0  0  0  0  0  0  0  0  0  0  0
   19.6841   17.6253   21.2312 H   0  0  0  0  0  0  0  0  0  0  0  0
   20.4412   16.7488   23.0741 C   0  0  0  0  0  0  0  0  0  0  0  0
   20.1173   16.5708   24.1077 H   0  0  0  0  0  0  0  0  0  0  0  0
   20.6985   15.7779   22.6313 H   0  0  0  0  0  0  0  0  0  0  0  0
   21.3569   17.3524   23.0993 H   0  0  0  0  0  0  0  0  0  0  0  0
  1  2  1  0  0  0  0
  1  3  1  0  0  0  0
  1  4  1  0  0  0  0
  1  5  1  0  0  0  0
  5  6  1  0  0  0  0
  5  7  1  0  0  0  0
  5  8  1  0  0  0  0
  8  9  1  0  0  0  0
  8 10  1  0  0  0  0
  8 11  1  0  0  0  0
 11 12  1  0  0  0  0
 11 13  1  0  0  0  0
 11 14  1  0  0  0  0
 14 15  1  0  0  0  0
 14 16  1  0  0  0  0
 14 17  1  0  0  0  0
 17 18  1  0  0  0  0
 17 19  1  0  0  0  0
 17 20  1  0  0  0  0
M  END
> <VConfSearch Rank>
679

> <Conf_Id>
22

> <Delta U+W>
0.731

> <U+W>
-11.047

> <U>
47.078

> <W>
-58.125

> <W(PB)>
-60.031

> <W(SA)>
1.906

> <Valence>
2.039

> <Coulomb>
44.655

> <VdW>
0.383

> <VdW6>
-4.913

> <VdW12>
5.296

> <Bond>
0.159

> <Angle>
0.856

> <Pdih>
1.024

> <Idih>
0.000

> <Tether>
0.000

$$$$
VeraChem MOL file


 20 19  0  0  0  0  0  0  0  0999 V2000     
   22.1017   20.0538   24.2610 N   0  3  0  0  0  0  0  0  0  0  0  0
   22.5938   19.1802   24.4732 H   0  0  0  0  0  0  0  0  0  0  0  0
   22.7837   20.6870   23.8319 H   0  0  0  0  0  0  0  0  0  0  0  0
   21.8339   20.4700   25.1591 H   0  0  0  0  0  0  0  0  0  0  0  0
   20.9006   19.8241   23.3659 C   0  0  0  0  0  0  0  0  0  0  0  0
   20.4101   20.7877   23.2038 H   0  0  0  0  0  0  0  0  0  0  0  0
   20.2097   19.1677   23.9000 H   0  0  0  0  0  0  0  0  0  0  0  0
   21.2687   19.1943   22.0107 C   0  0  0  0  0  0  0  0  0  0  0  0
   22.0523   19.8028   21.5399 H   0  0  0  0  0  0  0  0  0  0  0  0
   21.7054   18.2005   22.1760 H   0  0  0  0  0  0  0  0  0  0  0  0
   20.0773   19.0816   21.0259 C   0  0  0  0  0  0  0  0  0  0  0  0
   20.4729   18.7080   20.0712 H   0  0  0  0  0  0  0  0  0  0  0  0
   19.6700   20.0787   20.8083 H   0  0  0  0  0  0  0  0  0  0  0  0
   18.9424   18.1273   21.4803 C   0  0  0  0  0  0  0  0  0  0  0  0
   18.4491   17.7268   20.5834 H   0  0  0  0  0  0  0  0  0  0  0  0
   19.3624   17.2586   22.0064 H   0  0  0  0  0  0  0  0  0  0  0  0
   17.8601   18.8094   22.3498 C   0  0  0  0  0  0  0  0  0  0  0  0
   18.2560   19.1572   23.3096 H   0  0  0  0  0  0  0  0  0  0  0  0
   17.4223   19.6711   21.8294 H   0  0  0  0  0  0  0  0  0  0  0  0
   17.0464   18.1056   22.5678 H   0  0  0  0  0  0  0  0  0  0  0  0
  1  2  1  0  0  0  0
  1  3  1  0  0  0  0
  1  4  1  0  0  0  0
  1  5  1  0  0  0  0
  5  6  1  0  0  0  0
  5  7  1  0  0  0  0
  5  8  1  0  0  0  0
  8  9  1  0  0  0  0
  8 10  1  0  0  0  0
  8 11  1  0  0  0  0
 11 12  1  0  0  0  0
 11 13  1  0  0  0  0
 11 14  1  0  0  0  0
 14 15  1  0  0  0  0
 14 16  1  0  0  0  0
 14 17  1  0  0  0  0
 17 18  1  0  0  0  0
 17 19  1  0  0  0  0
 17 20  1  0  0  0  0
M  END
> <VConfSearch Rank>
680

> <Conf_Id>
61

> <Delta U+W>
2.669

> <U+W>
-9.108

> <U>
48.916

> <W>
-58.025

> <W(PB)>
-59.935

> <W(SA)>
1.911

> <Valence>
3.785

> <Coulomb>
44.716

> <VdW>
0.415

> <VdW6>
-4.836

> <VdW12>
5.251

> <Bond>
0.175

> <Angle>
1.195

> <Pdih>
2.415

> <Idih>
0.000

> <Tether>
0.000

$$$$
VeraChem MOL file


 20 19  0  0  0  0  0  0  0  0999 V2000     
   22.3996   19.2299   22.0971 N   0  3  0  0  0  0  0  0  0  0  0  0
   23.1924   19.8795   22.0646 H   0  0  0  0  0  0  0  0  0  0  0  0
   22.7552   18.3133   21.8078 H   0  0  0  0  0  0  0  0  0  0  0  0
   21.7324   19.5340   21.3834 H   0  0  0  0  0  0  0  0  0  0  0  0
   21.7709   19.1795   23.4765 C   0  0  0  0  0  0  0  0  0  0  0  0
   21.4631   20.1905   23.7566 H   0  0  0  0  0  0  0  0  0  0  0  0
   22.5528   18.8599   24.1708 H   0  0  0  0  0  0  0  0  0  0  0  0
   20.5718   18.2152   23.5945 C   0  0  0  0  0  0  0  0  0  0  0  0
   20.7899   17.2770   23.0673 H   0  0  0  0  0  0  0  0  0  0  0  0
   20.4629   17.9466   24.6536 H   0  0  0  0  0  0  0  0  0  0  0  0
   19.2209   18.8043   23.1132 C   0  0  0  0  0  0  0  0  0  0  0  0
   18.9898   19.7100   23.6910 H   0  0  0  0  0  0  0  0  0  0  0  0
   18.4287   18.0806   23.3503 H   0  0  0  0  0  0  0  0  0  0  0  0
   19.1646   19.1286   21.6019 C   0  0  0  0  0  0  0  0  0  0  0  0
   19.8443   19.9580   21.3696 H   0  0  0  0  0  0  0  0  0  0  0  0
   19.4988   18.2581   21.0201 H   0  0  0  0  0  0  0  0  0  0  0  0
   17.7395   19.5221   21.1576 C   0  0  0  0  0  0  0  0  0  0  0  0
   17.7186   19.7582   20.0858 H   0  0  0  0  0  0  0  0  0  0  0  0
   17.0295   18.7037   21.3351 H   0  0  0  0  0  0  0  0  0  0  0  0
   17.3856   20.4061   21.7041 H   0  0  0  0  0  0  0  0  0  0  0  0
  1  2  1  0  0  0  0
  1  3  1  0  0  0  0
  1  4  1  0  0  0  0
  1  5  1  0  0  0  0
  5  6  1  0  0  0  0
  5  7  1  0  0  0  0
  5  8  1  0  0  0  0
  8  9  1  0  0  0  0
  8 10  1  0  0  0  0
  8 11  1  0  0  0  0
 11 12  1  0  0  0  0
 11 13  1  0  0  0  0
 11 14  1  0  0  0  0
 14 15  1  0  0  0  0
 14 16  1  0  0  0  0
 14 17  1  0  0  0  0
 17 18  1  0  0  0  0
 17 19  1  0  0  0  0
 17 20  1  0  0  0  0
M  END
> <VConfSearch Rank>
681

> <Conf_Id>
69

> <Delta U+W>
2.811

> <U+W>
-8.967

> <U>
49.216

> <W>
-58.183

> <W(PB)>
-60.064

> <W(SA)>
1.881

> <Valence>
2.929

> <Coulomb>
46.006

> <VdW>
0.281

> <VdW6>
-4.909

> <VdW12>
5.190

> <Bond>
0.156

> <Angle>
0.974

> <Pdih>
1.799

> <Idih>
0.000

> <Tether>
0.000

$$$$
VeraChem MOL file


 20 19  0  0  0  0  0  0  0  0999 V2000     
   21.5010   17.6202   23.3472 N   0  3  0  0  0  0  0  0  0  0  0  0
   21.6868   18.6237   23.4210 H   0  0  0  0  0  0  0  0  0  0  0  0
   21.1067   17.3188   24.2439 H   0  0  0  0  0  0  0  0  0  0  0  0
   22.4083   17.1522   23.2498 H   0  0  0  0  0  0  0  0  0  0  0  0
   20.5757   17.2983   22.1893 C   0  0  0  0  0  0  0  0  0  0  0  0
   20.4444   16.2129   22.1795 H   0  0  0  0  0  0  0  0  0  0  0  0
   21.0696   17.5872   21.2576 H   0  0  0  0  0  0  0  0  0  0  0  0
   19.1890   17.9697   22.2772 C   0  0  0  0  0  0  0  0  0  0  0  0
   18.4940   17.3812   21.6636 H   0  0  0  0  0  0  0  0  0  0  0  0
   18.8066   17.9106   23.3049 H   0  0  0  0  0  0  0  0  0  0  0  0
   19.1480   19.4337   21.7686 C   0  0  0  0  0  0  0  0  0  0  0  0
   18.1007   19.7663   21.7690 H   0  0  0  0  0  0  0  0  0  0  0  0
   19.4782   19.4667   20.7210 H   0  0  0  0  0  0  0  0  0  0  0  0
   19.9875   20.4273   22.6054 C   0  0  0  0  0  0  0  0  0  0  0  0
   19.7378   20.3230   23.6707 H   0  0  0  0  0  0  0  0  0  0  0  0
   21.0558   20.2021   22.4962 H   0  0  0  0  0  0  0  0  0  0  0  0
   19.7456   21.8870   22.1655 C   0  0  0  0  0  0  0  0  0  0  0  0
   18.6929   22.1703   22.2954 H   0  0  0  0  0  0  0  0  0  0  0  0
   20.3553   22.5780   22.7620 H   0  0  0  0  0  0  0  0  0  0  0  0
   20.0102   22.0302   21.1097 H   0  0  0  0  0  0  0  0  0  0  0  0
  1  2  1  0  0  0  0
  1  3  1  0  0  0  0
  1  4  1  0  0  0  0
  1  5  1  0  0  0  0
  5  6  1  0  0  0  0
  5  7  1  0  0  0  0
  5  8  1  0  0  0  0
  8  9  1  0  0  0  0
  8 10  1  0  0  0  0
  8 11  1  0  0  0  0
 11 12  1  0  0  0  0
 11 13  1  0  0  0  0
 11 14  1  0  0  0  0
 14 15  1  0  0  0  0
 14 16  1  0  0  0  0
 14 17  1  0  0  0  0
 17 18  1  0  0  0  0
 17 19  1  0  0  0  0
 17 20  1  0  0  0  0
M  END
> <VConfSearch Rank>
682

> <Conf_Id>
26

> <Delta U+W>
2.809

> <U+W>
-8.969

> <U>
49.216

> <W>
-58.185

> <W(PB)>
-60.088

> <W(SA)>
1.903

> <Valence>
2.929

> <Coulomb>
46.006

> <VdW>
0.281

> <VdW6>
-4.909

> <VdW12>
5.190

> <Bond>
0.156

> <Angle>
0.974

> <Pdih>
1.799

> <Idih>
0.000

> <Tether>
0.000

$$$$
VeraChem MOL file


 20 19  0  0  0  0  0  0  0  0999 V2000     
   21.6219   17.4791   23.3337 N   0  3  0  0  0  0  0  0  0  0  0  0
   22.2008   18.2790   23.0618 H   0  0  0  0  0  0  0  0  0  0  0  0
   21.6869   17.3907   24.3525 H   0  0  0  0  0  0  0  0  0  0  0  0
   22.0582   16.6422   22.9331 H   0  0  0  0  0  0  0  0  0  0  0  0
   20.1868   17.6426   22.8725 C   0  0  0  0  0  0  0  0  0  0  0  0
   19.6378   16.7442   23.1676 H   0  0  0  0  0  0  0  0  0  0  0  0
   20.1848   17.6977   21.7807 H   0  0  0  0  0  0  0  0  0  0  0  0
   19.4859   18.8857   23.4569 C   0  0  0  0  0  0  0  0  0  0  0  0
   18.4366   18.8843   23.1351 H   0  0  0  0  0  0  0  0  0  0  0  0
   19.4633   18.8039   24.5516 H   0  0  0  0  0  0  0  0  0  0  0  0
   20.1508   20.2298   23.0591 C   0  0  0  0  0  0  0  0  0  0  0  0
   21.1443   20.2950   23.5225 H   0  0  0  0  0  0  0  0  0  0  0  0
   19.5672   21.0544   23.4911 H   0  0  0  0  0  0  0  0  0  0  0  0
   20.2929   20.4582   21.5324 C   0  0  0  0  0  0  0  0  0  0  0  0
   20.7925   21.4231   21.3673 H   0  0  0  0  0  0  0  0  0  0  0  0
   20.9534   19.6980   21.0939 H   0  0  0  0  0  0  0  0  0  0  0  0
   18.9402   20.4639   20.7849 C   0  0  0  0  0  0  0  0  0  0  0  0
   18.2544   21.2052   21.2152 H   0  0  0  0  0  0  0  0  0  0  0  0
   19.0866   20.7169   19.7268 H   0  0  0  0  0  0  0  0  0  0  0  0
   18.4538   19.4814   20.8248 H   0  0  0  0  0  0  0  0  0  0  0  0
  1  2  1  0  0  0  0
  1  3  1  0  0  0  0
  1  4  1  0  0  0  0
  1  5  1  0  0  0  0
  5  6  1  0  0  0  0
  5  7  1  0  0  0  0
  5  8  1  0  0  0  0
  8  9  1  0  0  0  0
  8 10  1  0  0  0  0
  8 11  1  0  0  0  0
 11 12  1  0  0  0  0
 11 13  1  0  0  0  0
 11 14  1  0  0  0  0
 14 15  1  0  0  0  0
 14 16  1  0  0  0  0
 14 17  1  0  0  0  0
 17 18  1  0  0  0  0
 17 19  1  0  0  0  0
 17 20  1  0  0  0  0
M  END
> <VConfSearch Rank>
683

> <Conf_Id>
2

> <Delta U+W>
0.994

> <U+W>
-10.784

> <U>
47.562

> <W>
-58.346

> <W(PB)>
-60.221

> <W(SA)>
1.875

> <Valence>
2.149

> <Coulomb>
45.034

> <VdW>
0.378

> <VdW6>
-5.599

> <VdW12>
5.977

> <Bond>
0.185

> <Angle>
0.935

> <Pdih>
1.028

> <Idih>
0.000

> <Tether>
0.000

$$$$
VeraChem MOL file


 20 19  0  0  0  0  0  0  0  0999 V2000     
   19.0351   17.0549   21.7921 N   0  3  0  0  0  0  0  0  0  0  0  0
   18.0106   17.0650   21.8081 H   0  0  0  0  0  0  0  0  0  0  0  0
   19.3292   17.5329   20.9354 H   0  0  0  0  0  0  0  0  0  0  0  0
   19.3225   16.0747   21.7034 H   0  0  0  0  0  0  0  0  0  0  0  0
   19.6246   17.7056   23.0283 C   0  0  0  0  0  0  0  0  0  0  0  0
   20.7134   17.6323   22.9646 H   0  0  0  0  0  0  0  0  0  0  0  0
   19.2963   17.1287   23.8971 H   0  0  0  0  0  0  0  0  0  0  0  0
   19.2127   19.1808   23.2082 C   0  0  0  0  0  0  0  0  0  0  0  0
   18.1205   19.2395   23.3051 H   0  0  0  0  0  0  0  0  0  0  0  0
   19.6176   19.5476   24.1600 H   0  0  0  0  0  0  0  0  0  0  0  0
   19.6734   20.1094   22.0539 C   0  0  0  0  0  0  0  0  0  0  0  0
   19.3660   21.1388   22.2843 H   0  0  0  0  0  0  0  0  0  0  0  0
   19.1380   19.8388   21.1340 H   0  0  0  0  0  0  0  0  0  0  0  0
   21.1976   20.0893   21.7721 C   0  0  0  0  0  0  0  0  0  0  0  0
   21.5109   19.0884   21.4454 H   0  0  0  0  0  0  0  0  0  0  0  0
   21.4070   20.7612   20.9280 H   0  0  0  0  0  0  0  0  0  0  0  0
   22.0508   20.5306   22.9829 C   0  0  0  0  0  0  0  0  0  0  0  0
   21.9631   19.8231   23.8167 H   0  0  0  0  0  0  0  0  0  0  0  0
   23.1117   20.5848   22.7064 H   0  0  0  0  0  0  0  0  0  0  0  0
   21.7461   21.5229   23.3399 H   0  0  0  0  0  0  0  0  0  0  0  0
  1  2  1  0  0  0  0
  1  3  1  0  0  0  0
  1  4  1  0  0  0  0
  1  5  1  0  0  0  0
  5  6  1  0  0  0  0
  5  7  1  0  0  0  0
  5  8  1  0  0  0  0
  8  9  1  0  0  0  0
  8 10  1  0  0  0  0
  8 11  1  0  0  0  0
 11 12  1  0  0  0  0
 11 13  1  0  0  0  0
 11 14  1  0  0  0  0
 14 15  1  0  0  0  0
 14 16  1  0  0  0  0
 14 17  1  0  0  0  0
 17 18  1  0  0  0  0
 17 19  1  0  0  0  0
 17 20  1  0  0  0  0
M  END
> <VConfSearch Rank>
684

> <Conf_Id>
1

> <Delta U+W>
1.032

> <U+W>
-10.746

> <U>
47.562

> <W>
-58.308

> <W(PB)>
-60.184

> <W(SA)>
1.877

> <Valence>
2.149

> <Coulomb>
45.035

> <VdW>
0.378

> <VdW6>
-5.599

> <VdW12>
5.978

> <Bond>
0.185

> <Angle>
0.935

> <Pdih>
1.028

> <Idih>
0.000

> <Tether>
0.000

$$$$
VeraChem MOL file


 20 19  0  0  0  0  0  0  0  0999 V2000     
   19.7226   16.8404   22.4153 N   0  3  0  0  0  0  0  0  0  0  0  0
   18.7905   16.5542   22.1002 H   0  0  0  0  0  0  0  0  0  0  0  0
   20.2677   17.0700   21.5793 H   0  0  0  0  0  0  0  0  0  0  0  0
   20.1596   16.0159   22.8404 H   0  0  0  0  0  0  0  0  0  0  0  0
   19.6580   18.0056   23.3837 C   0  0  0  0  0  0  0  0  0  0  0  0
   20.6764   18.2363   23.7005 H   0  0  0  0  0  0  0  0  0  0  0  0
   19.1002   17.6716   24.2627 H   0  0  0  0  0  0  0  0  0  0  0  0
   18.9786   19.2634   22.8014 C   0  0  0  0  0  0  0  0  0  0  0  0
   17.9635   18.9871   22.4867 H   0  0  0  0  0  0  0  0  0  0  0  0
   18.8535   20.0102   23.5965 H   0  0  0  0  0  0  0  0  0  0  0  0
   19.7204   19.9042   21.5974 C   0  0  0  0  0  0  0  0  0  0  0  0
   18.9869   20.4847   21.0208 H   0  0  0  0  0  0  0  0  0  0  0  0
   20.0849   19.1298   20.9103 H   0  0  0  0  0  0  0  0  0  0  0  0
   20.8774   20.8648   21.9748 C   0  0  0  0  0  0  0  0  0  0  0  0
   21.2595   21.3229   21.0517 H   0  0  0  0  0  0  0  0  0  0  0  0
   20.4883   21.6923   22.5844 H   0  0  0  0  0  0  0  0  0  0  0  0
   22.0563   20.1931   22.7131 C   0  0  0  0  0  0  0  0  0  0  0  0
   22.3957   19.2919   22.1864 H   0  0  0  0  0  0  0  0  0  0  0  0
   22.9077   20.8827   22.7798 H   0  0  0  0  0  0  0  0  0  0  0  0
   21.7817   19.9197   23.7387 H   0  0  0  0  0  0  0  0  0  0  0  0
  1  2  1  0  0  0  0
  1  3  1  0  0  0  0
  1  4  1  0  0  0  0
  1  5  1  0  0  0  0
  5  6  1  0  0  0  0
  5  7  1  0  0  0  0
  5  8  1  0  0  0  0
  8  9  1  0  0  0  0
  8 10  1  0  0  0  0
  8 11  1  0  0  0  0
 11 12  1  0  0  0  0
 11 13  1  0  0  0  0
 11 14  1  0  0  0  0
 14 15  1  0  0  0  0
 14 16  1  0  0  0  0
 14 17  1  0  0  0  0
 17 18  1  0  0  0  0
 17 19  1  0  0  0  0
 17 20  1  0  0  0  0
M  END
> <VConfSearch Rank>
685

> <Conf_Id>
80

> <Delta U+W>
2.920

> <U+W>
-8.857

> <U>
49.434

> <W>
-58.292

> <W(PB)>
-60.170

> <W(SA)>
1.879

> <Valence>
3.798

> <Coulomb>
45.253

> <VdW>
0.384

> <VdW6>
-5.595

> <VdW12>
5.979

> <Bond>
0.198

> <Angle>
1.368

> <Pdih>
2.231

> <Idih>
0.000

> <Tether>
0.000

$$$$
VeraChem MOL file


 20 19  0  0  0  0  0  0  0  0999 V2000     
   18.1402   19.1191   23.5866 N   0  3  0  0  0  0  0  0  0  0  0  0
   17.4860   19.8990   23.4685 H   0  0  0  0  0  0  0  0  0  0  0  0
   17.6161   18.3542   24.0243 H   0  0  0  0  0  0  0  0  0  0  0  0
   18.8504   19.4190   24.2607 H   0  0  0  0  0  0  0  0  0  0  0  0
   18.7579   18.6959   22.2679 C   0  0  0  0  0  0  0  0  0  0  0  0
   17.9466   18.3515   21.6208 H   0  0  0  0  0  0  0  0  0  0  0  0
   19.4155   17.8471   22.4617 H   0  0  0  0  0  0  0  0  0  0  0  0
   19.5322   19.8230   21.5517 C   0  0  0  0  0  0  0  0  0  0  0  0
   19.8344   19.4793   20.5537 H   0  0  0  0  0  0  0  0  0  0  0  0
   18.8397   20.6587   21.3845 H   0  0  0  0  0  0  0  0  0  0  0  0
   20.7752   20.3473   22.3202 C   0  0  0  0  0  0  0  0  0  0  0  0
   20.5540   20.4504   23.3903 H   0  0  0  0  0  0  0  0  0  0  0  0
   20.9848   21.3660   21.9656 H   0  0  0  0  0  0  0  0  0  0  0  0
   22.0679   19.5139   22.1245 C   0  0  0  0  0  0  0  0  0  0  0  0
   22.3386   19.4942   21.0595 H   0  0  0  0  0  0  0  0  0  0  0  0
   22.8917   20.0311   22.6363 H   0  0  0  0  0  0  0  0  0  0  0  0
   21.9884   18.0677   22.6611 C   0  0  0  0  0  0  0  0  0  0  0  0
   21.3416   17.4436   22.0332 H   0  0  0  0  0  0  0  0  0  0  0  0
   22.9837   17.6047   22.6597 H   0  0  0  0  0  0  0  0  0  0  0  0
   21.6096   18.0444   23.6910 H   0  0  0  0  0  0  0  0  0  0  0  0
  1  2  1  0  0  0  0
  1  3  1  0  0  0  0
  1  4  1  0  0  0  0
  1  5  1  0  0  0  0
  5  6  1  0  0  0  0
  5  7  1  0  0  0  0
  5  8  1  0  0  0  0
  8  9  1  0  0  0  0
  8 10  1  0  0  0  0
  8 11  1  0  0  0  0
 11 12  1  0  0  0  0
 11 13  1  0  0  0  0
 11 14  1  0  0  0  0
 14 15  1  0  0  0  0
 14 16  1  0  0  0  0
 14 17  1  0  0  0  0
 17 18  1  0  0  0  0
 17 19  1  0  0  0  0
 17 20  1  0  0  0  0
M  END
> <VConfSearch Rank>
686

> <Conf_Id>
65

> <Delta U+W>
2.949

> <U+W>
-8.829

> <U>
49.435

> <W>
-58.263

> <W(PB)>
-60.125

> <W(SA)>
1.862

> <Valence>
3.797

> <Coulomb>
45.253

> <VdW>
0.384

> <VdW6>
-5.596

> <VdW12>
5.980

> <Bond>
0.198

> <Angle>
1.369

> <Pdih>
2.230

> <Idih>
0.000

> <Tether>
0.000

$$$$
VeraChem MOL file


 20 19  0  0  0  0  0  0  0  0999 V2000     
   21.8897   19.5526   23.2488 N   0  3  0  0  0  0  0  0  0  0  0  0
   22.8330   19.1552   23.1863 H   0  0  0  0  0  0  0  0  0  0  0  0
   21.6410   19.8985   22.3170 H   0  0  0  0  0  0  0  0  0  0  0  0
   21.9494   20.3656   23.8700 H   0  0  0  0  0  0  0  0  0  0  0  0
   20.8816   18.5359   23.7484 C   0  0  0  0  0  0  0  0  0  0  0  0
   21.2129   18.2187   24.7410 H   0  0  0  0  0  0  0  0  0  0  0  0
   20.9057   17.6646   23.0885 H   0  0  0  0  0  0  0  0  0  0  0  0
   19.4413   19.0781   23.8479 C   0  0  0  0  0  0  0  0  0  0  0  0
   18.9011   18.4583   24.5758 H   0  0  0  0  0  0  0  0  0  0  0  0
   19.4540   20.0916   24.2705 H   0  0  0  0  0  0  0  0  0  0  0  0
   18.6353   19.0613   22.5214 C   0  0  0  0  0  0  0  0  0  0  0  0
   17.6213   19.4186   22.7489 H   0  0  0  0  0  0  0  0  0  0  0  0
   18.5099   18.0269   22.1725 H   0  0  0  0  0  0  0  0  0  0  0  0
   19.2092   19.9411   21.3816 C   0  0  0  0  0  0  0  0  0  0  0  0
   18.3709   20.3711   20.8155 H   0  0  0  0  0  0  0  0  0  0  0  0
   19.7558   20.7988   21.7962 H   0  0  0  0  0  0  0  0  0  0  0  0
   20.0928   19.1491   20.3887 C   0  0  0  0  0  0  0  0  0  0  0  0
   20.9175   18.6269   20.8855 H   0  0  0  0  0  0  0  0  0  0  0  0
   19.4969   18.3938   19.8597 H   0  0  0  0  0  0  0  0  0  0  0  0
   20.5220   19.8196   19.6328 H   0  0  0  0  0  0  0  0  0  0  0  0
  1  2  1  0  0  0  0
  1  3  1  0  0  0  0
  1  4  1  0  0  0  0
  1  5  1  0  0  0  0
  5  6  1  0  0  0  0
  5  7  1  0  0  0  0
  5  8  1  0  0  0  0
  8  9  1  0  0  0  0
  8 10  1  0  0  0  0
  8 11  1  0  0  0  0
 11 12  1  0  0  0  0
 11 13  1  0  0  0  0
 11 14  1  0  0  0  0
 14 15  1  0  0  0  0
 14 16  1  0  0  0  0
 14 17  1  0  0  0  0
 17 18  1  0  0  0  0
 17 19  1  0  0  0  0
 17 20  1  0  0  0  0
M  END
> <VConfSearch Rank>
687

> <Conf_Id>
77

> <Delta U+W>
5.366

> <U+W>
-6.412

> <U>
51.542

> <W>
-57.954

> <W(PB)>
-59.811

> <W(SA)>
1.857

> <Valence>
5.347

> <Coulomb>
45.870

> <VdW>
0.325

> <VdW6>
-6.161

> <VdW12>
6.486

> <Bond>
0.201

> <Angle>
1.484

> <Pdih>
3.662

> <Idih>
0.000

> <Tether>
0.000

$$$$
VeraChem MOL file


 20 19  0  0  0  0  0  0  0  0999 V2000     
   21.6652   19.0395   21.1282 N   0  3  0  0  0  0  0  0  0  0  0  0
   22.2793   19.8594   21.1602 H   0  0  0  0  0  0  0  0  0  0  0  0
   21.7525   18.5579   22.0283 H   0  0  0  0  0  0  0  0  0  0  0  0
   22.0411   18.4133   20.4083 H   0  0  0  0  0  0  0  0  0  0  0  0
   20.2263   19.4250   20.8445 C   0  0  0  0  0  0  0  0  0  0  0  0
   19.6297   18.5132   20.7562 H   0  0  0  0  0  0  0  0  0  0  0  0
   20.2165   19.9319   19.8757 H   0  0  0  0  0  0  0  0  0  0  0  0
   19.6062   20.3561   21.9060 C   0  0  0  0  0  0  0  0  0  0  0  0
   20.3336   21.1260   22.1959 H   0  0  0  0  0  0  0  0  0  0  0  0
   18.7747   20.8948   21.4324 H   0  0  0  0  0  0  0  0  0  0  0  0
   19.0502   19.6428   23.1678 C   0  0  0  0  0  0  0  0  0  0  0  0
   18.2279   18.9706   22.8861 H   0  0  0  0  0  0  0  0  0  0  0  0
   18.5940   20.4125   23.8056 H   0  0  0  0  0  0  0  0  0  0  0  0
   20.0972   18.8762   24.0155 C   0  0  0  0  0  0  0  0  0  0  0  0
   21.0865   19.3434   23.9191 H   0  0  0  0  0  0  0  0  0  0  0  0
   19.8271   18.9734   25.0766 H   0  0  0  0  0  0  0  0  0  0  0  0
   20.1627   17.3670   23.6811 C   0  0  0  0  0  0  0  0  0  0  0  0
   20.9531   16.8756   24.2633 H   0  0  0  0  0  0  0  0  0  0  0  0
   19.2138   16.8747   23.9315 H   0  0  0  0  0  0  0  0  0  0  0  0
   20.3584   17.1807   22.6197 H   0  0  0  0  0  0  0  0  0  0  0  0
  1  2  1  0  0  0  0
  1  3  1  0  0  0  0
  1  4  1  0  0  0  0
  1  5  1  0  0  0  0
  5  6  1  0  0  0  0
  5  7  1  0  0  0  0
  5  8  1  0  0  0  0
  8  9  1  0  0  0  0
  8 10  1  0  0  0  0
  8 11  1  0  0  0  0
 11 12  1  0  0  0  0
 11 13  1  0  0  0  0
 11 14  1  0  0  0  0
 14 15  1  0  0  0  0
 14 16  1  0  0  0  0
 14 17  1  0  0  0  0
 17 18  1  0  0  0  0
 17 19  1  0  0  0  0
 17 20  1  0  0  0  0
M  END
> <VConfSearch Rank>
688

> <Conf_Id>
67

> <Delta U+W>
5.353

> <U+W>
-6.425

> <U>
51.541

> <W>
-57.966

> <W(PB)>
-59.821

> <W(SA)>
1.855

> <Valence>
5.347

> <Coulomb>
45.870

> <VdW>
0.325

> <VdW6>
-6.161

> <VdW12>
6.486

> <Bond>
0.201

> <Angle>
1.485

> <Pdih>
3.662

> <Idih>
0.000

> <Tether>
0.000

$$$$
VeraChem MOL file


 20 19  0  0  0  0  0  0  0  0999 V2000     
   18.2335   18.3218   20.0129 N   0  3  0  0  0  0  0  0  0  0  0  0
   18.1516   17.3212   20.2190 H   0  0  0  0  0  0  0  0  0  0  0  0
   17.3293   18.6219   19.6332 H   0  0  0  0  0  0  0  0  0  0  0  0
   18.9195   18.4186   19.2576 H   0  0  0  0  0  0  0  0  0  0  0  0
   18.6233   19.1228   21.2388 C   0  0  0  0  0  0  0  0  0  0  0  0
   17.8365   18.9981   21.9877 H   0  0  0  0  0  0  0  0  0  0  0  0
   18.6622   20.1778   20.9542 H   0  0  0  0  0  0  0  0  0  0  0  0
   19.9773   18.6969   21.8343 C   0  0  0  0  0  0  0  0  0  0  0  0
   19.9389   17.6329   22.1038 H   0  0  0  0  0  0  0  0  0  0  0  0
   20.7617   18.8086   21.0739 H   0  0  0  0  0  0  0  0  0  0  0  0
   20.3369   19.5366   23.0802 C   0  0  0  0  0  0  0  0  0  0  0  0
   19.5474   19.4267   23.8368 H   0  0  0  0  0  0  0  0  0  0  0  0
   20.3693   20.6009   22.8081 H   0  0  0  0  0  0  0  0  0  0  0  0
   21.6947   19.1176   23.6869 C   0  0  0  0  0  0  0  0  0  0  0  0
   21.6660   18.0539   23.9624 H   0  0  0  0  0  0  0  0  0  0  0  0
   22.4878   19.2281   22.9339 H   0  0  0  0  0  0  0  0  0  0  0  0
   22.0498   19.9591   24.9314 C   0  0  0  0  0  0  0  0  0  0  0  0
   21.2917   19.8422   25.7167 H   0  0  0  0  0  0  0  0  0  0  0  0
   23.0164   19.6470   25.3476 H   0  0  0  0  0  0  0  0  0  0  0  0
   22.1201   21.0255   24.6802 H   0  0  0  0  0  0  0  0  0  0  0  0
  1  2  1  0  0  0  0
  1  3  1  0  0  0  0
  1  4  1  0  0  0  0
  1  5  1  0  0  0  0
  5  6  1  0  0  0  0
  5  7  1  0  0  0  0
  5  8  1  0  0  0  0
  8  9  1  0  0  0  0
  8 10  1  0  0  0  0
  8 11  1  0  0  0  0
 11 12  1  0  0  0  0
 11 13  1  0  0  0  0
 11 14  1  0  0  0  0
 14 15  1  0  0  0  0
 14 16  1  0  0  0  0
 14 17  1  0  0  0  0
 17 18  1  0  0  0  0
 17 19  1  0  0  0  0
 17 20  1  0  0  0  0
M  END
> <VConfSearch Rank>
689

> <Conf_Id>
72

> <Delta U+W>
0.000

> <U+W>
-11.778

> <U>
45.772

> <W>
-57.550

> <W(PB)>
-59.511

> <W(SA)>
1.961

> <Valence>
1.299

> <Coulomb>
44.177

> <VdW>
0.297

> <VdW6>
-3.490

> <VdW12>
3.786

> <Bond>
0.096

> <Angle>
0.381

> <Pdih>
0.822

> <Idih>
0.000

> <Tether>
0.000

$$$$
VeraChem MOL file


 20 19  0  0  0  0  0  0  0  0999 V2000     
   17.8716   19.6901   20.5339 N   0  3  0  0  0  0  0  0  0  0  0  0
   17.5410   20.4887   21.0847 H   0  0  0  0  0  0  0  0  0  0  0  0
   18.4422   20.0664   19.7702 H   0  0  0  0  0  0  0  0  0  0  0  0
   17.0444   19.2628   20.1041 H   0  0  0  0  0  0  0  0  0  0  0  0
   18.6421   18.6975   21.3810 C   0  0  0  0  0  0  0  0  0  0  0  0
   18.9356   17.8625   20.7390 H   0  0  0  0  0  0  0  0  0  0  0  0
   17.9674   18.3167   22.1525 H   0  0  0  0  0  0  0  0  0  0  0  0
   19.8918   19.3071   22.0413 C   0  0  0  0  0  0  0  0  0  0  0  0
   20.5590   19.7025   21.2639 H   0  0  0  0  0  0  0  0  0  0  0  0
   19.5876   20.1545   22.6686 H   0  0  0  0  0  0  0  0  0  0  0  0
   20.6475   18.2596   22.8927 C   0  0  0  0  0  0  0  0  0  0  0  0
   20.8760   17.3865   22.2657 H   0  0  0  0  0  0  0  0  0  0  0  0
   19.9947   17.8977   23.6993 H   0  0  0  0  0  0  0  0  0  0  0  0
   21.9699   18.7918   23.4965 C   0  0  0  0  0  0  0  0  0  0  0  0
   22.4902   17.9610   23.9935 H   0  0  0  0  0  0  0  0  0  0  0  0
   22.6357   19.1329   22.6913 H   0  0  0  0  0  0  0  0  0  0  0  0
   21.7637   19.9329   24.5188 C   0  0  0  0  0  0  0  0  0  0  0  0
   21.0788   19.6266   25.3201 H   0  0  0  0  0  0  0  0  0  0  0  0
   22.7192   20.2104   24.9825 H   0  0  0  0  0  0  0  0  0  0  0  0
   21.3556   20.8328   24.0424 H   0  0  0  0  0  0  0  0  0  0  0  0
  1  2  1  0  0  0  0
  1  3  1  0  0  0  0
  1  4  1  0  0  0  0
  1  5  1  0  0  0  0
  5  6  1  0  0  0  0
  5  7  1  0  0  0  0
  5  8  1  0  0  0  0
  8  9  1  0  0  0  0
  8 10  1  0  0  0  0
  8 11  1  0  0  0  0
 11 12  1  0  0  0  0
 11 13  1  0  0  0  0
 11 14  1  0  0  0  0
 14 15  1  0  0  0  0
 14 16  1  0  0  0  0
 14 17  1  0  0  0  0
 17 18  1  0  0  0  0
 17 19  1  0  0  0  0
 17 20  1  0  0  0  0
M  END
> <VConfSearch Rank>
690

> <Conf_Id>
42

> <Delta U+W>
0.508

> <U+W>
-11.270

> <U>
46.486

> <W>
-57.756

> <W(PB)>
-59.705

> <W(SA)>
1.949

> <Valence>
1.806

> <Coulomb>
44.248

> <VdW>
0.433

> <VdW6>
-4.089

> <VdW12>
4.522

> <Bond>
0.131

> <Angle>
0.628

> <Pdih>
1.047

> <Idih>
0.000

> <Tether>
0.000

$$$$
VeraChem MOL file


 20 19  0  0  0  0  0  0  0  0999 V2000     
   18.9488   16.3093   22.6079 N   0  3  0  0  0  0  0  0  0  0  0  0
   18.3968   16.4426   23.4612 H   0  0  0  0  0  0  0  0  0  0  0  0
   18.3333   16.5176   21.8154 H   0  0  0  0  0  0  0  0  0  0  0  0
   19.1755   15.3107   22.5537 H   0  0  0  0  0  0  0  0  0  0  0  0
   20.1954   17.1709   22.5992 C   0  0  0  0  0  0  0  0  0  0  0  0
   20.7476   16.9564   21.6802 H   0  0  0  0  0  0  0  0  0  0  0  0
   20.8159   16.8750   23.4495 H   0  0  0  0  0  0  0  0  0  0  0  0
   19.8905   18.6774   22.6802 C   0  0  0  0  0  0  0  0  0  0  0  0
   19.2531   18.9594   21.8327 H   0  0  0  0  0  0  0  0  0  0  0  0
   19.3222   18.8859   23.5964 H   0  0  0  0  0  0  0  0  0  0  0  0
   21.1897   19.5171   22.6708 C   0  0  0  0  0  0  0  0  0  0  0  0
   21.7358   19.3436   21.7331 H   0  0  0  0  0  0  0  0  0  0  0  0
   21.8470   19.1682   23.4795 H   0  0  0  0  0  0  0  0  0  0  0  0
   20.9460   21.0348   22.8546 C   0  0  0  0  0  0  0  0  0  0  0  0
   20.4210   21.2150   23.8031 H   0  0  0  0  0  0  0  0  0  0  0  0
   21.9181   21.5401   22.9412 H   0  0  0  0  0  0  0  0  0  0  0  0
   20.1537   21.6755   21.6921 C   0  0  0  0  0  0  0  0  0  0  0  0
   19.1288   21.2877   21.6401 H   0  0  0  0  0  0  0  0  0  0  0  0
   20.0878   22.7630   21.8258 H   0  0  0  0  0  0  0  0  0  0  0  0
   20.6432   21.4854   20.7282 H   0  0  0  0  0  0  0  0  0  0  0  0
  1  2  1  0  0  0  0
  1  3  1  0  0  0  0
  1  4  1  0  0  0  0
  1  5  1  0  0  0  0
  5  6  1  0  0  0  0
  5  7  1  0  0  0  0
  5  8  1  0  0  0  0
  8  9  1  0  0  0  0
  8 10  1  0  0  0  0
  8 11  1  0  0  0  0
 11 12  1  0  0  0  0
 11 13  1  0  0  0  0
 11 14  1  0  0  0  0
 14 15  1  0  0  0  0
 14 16  1  0  0  0  0
 14 17  1  0  0  0  0
 17 18  1  0  0  0  0
 17 19  1  0  0  0  0
 17 20  1  0  0  0  0
M  END
> <VConfSearch Rank>
691

> <Conf_Id>
41

> <Delta U+W>
0.515

> <U+W>
-11.263

> <U>
46.486

> <W>
-57.749

> <W(PB)>
-59.685

> <W(SA)>
1.936

> <Valence>
1.806

> <Coulomb>
44.248

> <VdW>
0.433

> <VdW6>
-4.089

> <VdW12>
4.522

> <Bond>
0.131

> <Angle>
0.628

> <Pdih>
1.047

> <Idih>
0.000

> <Tether>
0.000

$$$$
VeraChem MOL file


 20 19  0  0  0  0  0  0  0  0999 V2000     
   22.5420   19.1057   23.8470 N   0  3  0  0  0  0  0  0  0  0  0  0
   23.5346   18.8620   23.9290 H   0  0  0  0  0  0  0  0  0  0  0  0
   22.4990   20.0647   23.4899 H   0  0  0  0  0  0  0  0  0  0  0  0
   22.1593   19.1191   24.7976 H   0  0  0  0  0  0  0  0  0  0  0  0
   21.7964   18.1350   22.9515 C   0  0  0  0  0  0  0  0  0  0  0  0
   21.9241   17.1335   23.3713 H   0  0  0  0  0  0  0  0  0  0  0  0
   22.2672   18.1523   21.9648 H   0  0  0  0  0  0  0  0  0  0  0  0
   20.2920   18.4414   22.8138 C   0  0  0  0  0  0  0  0  0  0  0  0
   19.8301   17.6219   22.2494 H   0  0  0  0  0  0  0  0  0  0  0  0
   19.8254   18.4406   23.8078 H   0  0  0  0  0  0  0  0  0  0  0  0
   20.0186   19.7888   22.0991 C   0  0  0  0  0  0  0  0  0  0  0  0
   20.4687   19.7737   21.0968 H   0  0  0  0  0  0  0  0  0  0  0  0
   20.5137   20.6008   22.6479 H   0  0  0  0  0  0  0  0  0  0  0  0
   18.5131   20.1314   21.9842 C   0  0  0  0  0  0  0  0  0  0  0  0
   18.0610   20.1612   22.9855 H   0  0  0  0  0  0  0  0  0  0  0  0
   18.4133   21.1455   21.5725 H   0  0  0  0  0  0  0  0  0  0  0  0
   17.7242   19.1511   21.0862 C   0  0  0  0  0  0  0  0  0  0  0  0
   17.6880   18.1446   21.5209 H   0  0  0  0  0  0  0  0  0  0  0  0
   16.6886   19.4930   20.9621 H   0  0  0  0  0  0  0  0  0  0  0  0
   18.1752   19.0793   20.0880 H   0  0  0  0  0  0  0  0  0  0  0  0
  1  2  1  0  0  0  0
  1  3  1  0  0  0  0
  1  4  1  0  0  0  0
  1  5  1  0  0  0  0
  5  6  1  0  0  0  0
  5  7  1  0  0  0  0
  5  8  1  0  0  0  0
  8  9  1  0  0  0  0
  8 10  1  0  0  0  0
  8 11  1  0  0  0  0
 11 12  1  0  0  0  0
 11 13  1  0  0  0  0
 11 14  1  0  0  0  0
 14 15  1  0  0  0  0
 14 16  1  0  0  0  0
 14 17  1  0  0  0  0
 17 18  1  0  0  0  0
 17 19  1  0  0  0  0
 17 20  1  0  0  0  0
M  END
> <VConfSearch Rank>
692

> <Conf_Id>
33

> <Delta U+W>
0.703

> <U+W>
-11.075

> <U>
47.080

> <W>
-58.154

> <W(PB)>
-60.053

> <W(SA)>
1.899

> <Valence>
1.943

> <Coulomb>
44.572

> <VdW>
0.565

> <VdW6>
-4.575

> <VdW12>
5.139

> <Bond>
0.158

> <Angle>
0.700

> <Pdih>
1.085

> <Idih>
0.000

> <Tether>
0.000

$$$$
VeraChem MOL file


 20 19  0  0  0  0  0  0  0  0999 V2000     
   21.9130   17.7493   24.0889 N   0  3  0  0  0  0  0  0  0  0  0  0
   22.1468   16.9650   24.7067 H   0  0  0  0  0  0  0  0  0  0  0  0
   22.7841   18.0397   23.6339 H   0  0  0  0  0  0  0  0  0  0  0  0
   21.6128   18.5226   24.6895 H   0  0  0  0  0  0  0  0  0  0  0  0
   20.8469   17.3713   23.0787 C   0  0  0  0  0  0  0  0  0  0  0  0
   19.9570   17.0508   23.6272 H   0  0  0  0  0  0  0  0  0  0  0  0
   21.2204   16.5165   22.5082 H   0  0  0  0  0  0  0  0  0  0  0  0
   20.4755   18.5088   22.1070 C   0  0  0  0  0  0  0  0  0  0  0  0
   21.3742   18.8403   21.5703 H   0  0  0  0  0  0  0  0  0  0  0  0
   19.7921   18.0996   21.3525 H   0  0  0  0  0  0  0  0  0  0  0  0
   19.8082   19.7115   22.8206 C   0  0  0  0  0  0  0  0  0  0  0  0
   20.4814   20.0940   23.5992 H   0  0  0  0  0  0  0  0  0  0  0  0
   18.8976   19.3766   23.3366 H   0  0  0  0  0  0  0  0  0  0  0  0
   19.4610   20.8797   21.8658 C   0  0  0  0  0  0  0  0  0  0  0  0
   19.1009   21.7283   22.4642 H   0  0  0  0  0  0  0  0  0  0  0  0
   20.3711   21.2275   21.3573 H   0  0  0  0  0  0  0  0  0  0  0  0
   18.3842   20.5196   20.8166 C   0  0  0  0  0  0  0  0  0  0  0  0
   17.4744   20.1390   21.2987 H   0  0  0  0  0  0  0  0  0  0  0  0
   18.1074   21.4059   20.2311 H   0  0  0  0  0  0  0  0  0  0  0  0
   18.7443   19.7598   20.1122 H   0  0  0  0  0  0  0  0  0  0  0  0
  1  2  1  0  0  0  0
  1  3  1  0  0  0  0
  1  4  1  0  0  0  0
  1  5  1  0  0  0  0
  5  6  1  0  0  0  0
  5  7  1  0  0  0  0
  5  8  1  0  0  0  0
  8  9  1  0  0  0  0
  8 10  1  0  0  0  0
  8 11  1  0  0  0  0
 11 12  1  0  0  0  0
 11 13  1  0  0  0  0
 11 14  1  0  0  0  0
 14 15  1  0  0  0  0
 14 16  1  0  0  0  0
 14 17  1  0  0  0  0
 17 18  1  0  0  0  0
 17 19  1  0  0  0  0
 17 20  1  0  0  0  0
M  END
> <VConfSearch Rank>
693

> <Conf_Id>
24

> <Delta U+W>
0.847

> <U+W>
-10.931

> <U>
47.080

> <W>
-58.011

> <W(PB)>
-59.914

> <W(SA)>
1.903

> <Valence>
1.943

> <Coulomb>
44.572

> <VdW>
0.565

> <VdW6>
-4.575

> <VdW12>
5.140

> <Bond>
0.158

> <Angle>
0.700

> <Pdih>
1.085

> <Idih>
0.000

> <Tether>
0.000

$$$$
VeraChem MOL file


 20 19  0  0  0  0  0  0  0  0999 V2000     
   19.2578   17.0023   23.8712 N   0  3  0  0  0  0  0  0  0  0  0  0
   19.4576   16.0193   23.6584 H   0  0  0  0  0  0  0  0  0  0  0  0
   19.8285   17.2523   24.6849 H   0  0  0  0  0  0  0  0  0  0  0  0
   18.2772   17.0490   24.1653 H   0  0  0  0  0  0  0  0  0  0  0  0
   19.5366   17.9033   22.6852 C   0  0  0  0  0  0  0  0  0  0  0  0
   18.9189   17.5631   21.8496 H   0  0  0  0  0  0  0  0  0  0  0  0
   20.5871   17.7795   22.4091 H   0  0  0  0  0  0  0  0  0  0  0  0
   19.2471   19.3887   22.9722 C   0  0  0  0  0  0  0  0  0  0  0  0
   18.2010   19.4959   23.2885 H   0  0  0  0  0  0  0  0  0  0  0  0
   19.8600   19.7287   23.8166 H   0  0  0  0  0  0  0  0  0  0  0  0
   19.4918   20.2960   21.7405 C   0  0  0  0  0  0  0  0  0  0  0  0
   19.2557   21.3345   22.0106 H   0  0  0  0  0  0  0  0  0  0  0  0
   18.7815   20.0211   20.9484 H   0  0  0  0  0  0  0  0  0  0  0  0
   20.9295   20.2366   21.1637 C   0  0  0  0  0  0  0  0  0  0  0  0
   21.1472   19.2268   20.7899 H   0  0  0  0  0  0  0  0  0  0  0  0
   20.9834   20.8995   20.2887 H   0  0  0  0  0  0  0  0  0  0  0  0
   22.0164   20.6611   22.1774 C   0  0  0  0  0  0  0  0  0  0  0  0
   23.0016   20.6915   21.6945 H   0  0  0  0  0  0  0  0  0  0  0  0
   21.8102   21.6605   22.5821 H   0  0  0  0  0  0  0  0  0  0  0  0
   22.0820   19.9569   23.0161 H   0  0  0  0  0  0  0  0  0  0  0  0
  1  2  1  0  0  0  0
  1  3  1  0  0  0  0
  1  4  1  0  0  0  0
  1  5  1  0  0  0  0
  5  6  1  0  0  0  0
  5  7  1  0  0  0  0
  5  8  1  0  0  0  0
  8  9  1  0  0  0  0
  8 10  1  0  0  0  0
  8 11  1  0  0  0  0
 11 12  1  0  0  0  0
 11 13  1  0  0  0  0
 11 14  1  0  0  0  0
 14 15  1  0  0  0  0
 14 16  1  0  0  0  0
 14 17  1  0  0  0  0
 17 18  1  0  0  0  0
 17 19  1  0  0  0  0
 17 20  1  0  0  0  0
M  END
> <VConfSearch Rank>
694

> <Conf_Id>
64

> <Delta U+W>
0.707

> <U+W>
-11.070

> <U>
47.077

> <W>
-58.148

> <W(PB)>
-60.054

> <W(SA)>
1.906

> <Valence>
2.039

> <Coulomb>
44.655

> <VdW>
0.383

> <VdW6>
-4.912

> <VdW12>
5.295

> <Bond>
0.159

> <Angle>
0.856

> <Pdih>
1.024

> <Idih>
0.000

> <Tether>
0.000

$$$$
VeraChem MOL file


 20 19  0  0  0  0  0  0  0  0999 V2000     
   18.6683   16.8011   22.7639 N   0  3  0  0  0  0  0  0  0  0  0  0
   18.0731   16.7916   23.5981 H   0  0  0  0  0  0  0  0  0  0  0  0
   18.0757   17.0755   21.9741 H   0  0  0  0  0  0  0  0  0  0  0  0
   18.9590   15.8323   22.5953 H   0  0  0  0  0  0  0  0  0  0  0  0
   19.8578   17.7256   22.9278 C   0  0  0  0  0  0  0  0  0  0  0  0
   20.4604   17.6619   22.0179 H   0  0  0  0  0  0  0  0  0  0  0  0
   20.4584   17.3587   23.7645 H   0  0  0  0  0  0  0  0  0  0  0  0
   19.4553   19.1905   23.1822 C   0  0  0  0  0  0  0  0  0  0  0  0
   18.8447   19.5568   22.3471 H   0  0  0  0  0  0  0  0  0  0  0  0
   18.8165   19.2375   24.0741 H   0  0  0  0  0  0  0  0  0  0  0  0
   20.6767   20.1198   23.3933 C   0  0  0  0  0  0  0  0  0  0  0  0
   21.2047   19.8127   24.3067 H   0  0  0  0  0  0  0  0  0  0  0  0
   20.3187   21.1416   23.5805 H   0  0  0  0  0  0  0  0  0  0  0  0
   21.6870   20.1441   22.2177 C   0  0  0  0  0  0  0  0  0  0  0  0
   22.5156   20.8160   22.4818 H   0  0  0  0  0  0  0  0  0  0  0  0
   22.1365   19.1508   22.0828 H   0  0  0  0  0  0  0  0  0  0  0  0
   21.0667   20.6193   20.8841 C   0  0  0  0  0  0  0  0  0  0  0  0
   20.5920   21.6025   20.9975 H   0  0  0  0  0  0  0  0  0  0  0  0
   21.8402   20.7075   20.1102 H   0  0  0  0  0  0  0  0  0  0  0  0
   20.3120   19.9129   20.5166 H   0  0  0  0  0  0  0  0  0  0  0  0
  1  2  1  0  0  0  0
  1  3  1  0  0  0  0
  1  4  1  0  0  0  0
  1  5  1  0  0  0  0
  5  6  1  0  0  0  0
  5  7  1  0  0  0  0
  5  8  1  0  0  0  0
  8  9  1  0  0  0  0
  8 10  1  0  0  0  0
  8 11  1  0  0  0  0
 11 12  1  0  0  0  0
 11 13  1  0  0  0  0
 11 14  1  0  0  0  0
 14 15  1  0  0  0  0
 14 16  1  0  0  0  0
 14 17  1  0  0  0  0
 17 18  1  0  0  0  0
 17 19  1  0  0  0  0
 17 20  1  0  0  0  0
M  END
> <VConfSearch Rank>
695

> <Conf_Id>
22

> <Delta U+W>
0.731

> <U+W>
-11.047

> <U>
47.078

> <W>
-58.125

> <W(PB)>
-60.031

> <W(SA)>
1.906

> <Valence>
2.039

> <Coulomb>
44.655

> <VdW>
0.383

> <VdW6>
-4.913

> <VdW12>
5.296

> <Bond>
0.159

> <Angle>
0.856

> <Pdih>
1.024

> <Idih>
0.000

> <Tether>
0.000

$$$$
VeraChem MOL file


 20 19  0  0  0  0  0  0  0  0999 V2000     
   22.0221   18.1257   24.2203 N   0  3  0  0  0  0  0  0  0  0  0  0
   22.7915   17.8916   23.5850 H   0  0  0  0  0  0  0  0  0  0  0  0
   22.3849   18.8071   24.8944 H   0  0  0  0  0  0  0  0  0  0  0  0
   21.8022   17.2743   24.7477 H   0  0  0  0  0  0  0  0  0  0  0  0
   20.8133   18.6549   23.4749 C   0  0  0  0  0  0  0  0  0  0  0  0
   20.0264   18.8569   24.2066 H   0  0  0  0  0  0  0  0  0  0  0  0
   20.4681   17.8672   22.8014 H   0  0  0  0  0  0  0  0  0  0  0  0
   21.1121   19.9309   22.6680 C   0  0  0  0  0  0  0  0  0  0  0  0
   21.5701   20.6722   23.3363 H   0  0  0  0  0  0  0  0  0  0  0  0
   21.8590   19.7078   21.8945 H   0  0  0  0  0  0  0  0  0  0  0  0
   19.8600   20.5681   22.0136 C   0  0  0  0  0  0  0  0  0  0  0  0
   20.1758   21.5115   21.5470 H   0  0  0  0  0  0  0  0  0  0  0  0
   19.1304   20.8488   22.7857 H   0  0  0  0  0  0  0  0  0  0  0  0
   19.1790   19.6995   20.9241 C   0  0  0  0  0  0  0  0  0  0  0  0
   18.6838   20.3705   20.2081 H   0  0  0  0  0  0  0  0  0  0  0  0
   19.9354   19.1489   20.3475 H   0  0  0  0  0  0  0  0  0  0  0  0
   18.1109   18.7259   21.4754 C   0  0  0  0  0  0  0  0  0  0  0  0
   18.5428   17.9625   22.1308 H   0  0  0  0  0  0  0  0  0  0  0  0
   17.3411   19.2656   22.0420 H   0  0  0  0  0  0  0  0  0  0  0  0
   17.6096   18.2028   20.6507 H   0  0  0  0  0  0  0  0  0  0  0  0
  1  2  1  0  0  0  0
  1  3  1  0  0  0  0
  1  4  1  0  0  0  0
  1  5  1  0  0  0  0
  5  6  1  0  0  0  0
  5  7  1  0  0  0  0
  5  8  1  0  0  0  0
  8  9  1  0  0  0  0
  8 10  1  0  0  0  0
  8 11  1  0  0  0  0
 11 12  1  0  0  0  0
 11 13  1  0  0  0  0
 11 14  1  0  0  0  0
 14 15  1  0  0  0  0
 14 16  1  0  0  0  0
 14 17  1  0  0  0  0
 17 18  1  0  0  0  0
 17 19  1  0  0  0  0
 17 20  1  0  0  0  0
M  END
> <VConfSearch Rank>
696

> <Conf_Id>
61

> <Delta U+W>
2.669

> <U+W>
-9.108

> <U>
48.916

> <W>
-58.025

> <W(PB)>
-59.935

> <W(SA)>
1.911

> <Valence>
3.785

> <Coulomb>
44.716

> <VdW>
0.415

> <VdW6>
-4.836

> <VdW12>
5.251

> <Bond>
0.175

> <Angle>
1.195

> <Pdih>
2.415

> <Idih>
0.000

> <Tether>
0.000

$$$$
VeraChem MOL file


 20 19  0  0  0  0  0  0  0  0999 V2000     
   21.2242   17.9959   20.7002 N   0  3  0  0  0  0  0  0  0  0  0  0
   21.1230   17.3301   19.9269 H   0  0  0  0  0  0  0  0  0  0  0  0
   22.2193   18.2340   20.7581 H   0  0  0  0  0  0  0  0  0  0  0  0
   20.9827   17.4967   21.5601 H   0  0  0  0  0  0  0  0  0  0  0  0
   20.3620   19.2272   20.4979 C   0  0  0  0  0  0  0  0  0  0  0  0
   19.3218   18.9099   20.3853 H   0  0  0  0  0  0  0  0  0  0  0  0
   20.6788   19.6862   19.5574 H   0  0  0  0  0  0  0  0  0  0  0  0
   20.4714   20.2732   21.6273 C   0  0  0  0  0  0  0  0  0  0  0  0
   21.5204   20.3938   21.9285 H   0  0  0  0  0  0  0  0  0  0  0  0
   20.1639   21.2432   21.2144 H   0  0  0  0  0  0  0  0  0  0  0  0
   19.5838   19.9815   22.8645 C   0  0  0  0  0  0  0  0  0  0  0  0
   18.5314   19.9218   22.5542 H   0  0  0  0  0  0  0  0  0  0  0  0
   19.6530   20.8415   23.5451 H   0  0  0  0  0  0  0  0  0  0  0  0
   19.9663   18.6991   23.6402 C   0  0  0  0  0  0  0  0  0  0  0  0
   19.7604   17.8130   23.0268 H   0  0  0  0  0  0  0  0  0  0  0  0
   21.0430   18.7025   23.8604 H   0  0  0  0  0  0  0  0  0  0  0  0
   19.1762   18.5768   24.9608 C   0  0  0  0  0  0  0  0  0  0  0  0
   19.4519   17.6576   25.4940 H   0  0  0  0  0  0  0  0  0  0  0  0
   19.3828   19.4255   25.6257 H   0  0  0  0  0  0  0  0  0  0  0  0
   18.0951   18.5454   24.7726 H   0  0  0  0  0  0  0  0  0  0  0  0
  1  2  1  0  0  0  0
  1  3  1  0  0  0  0
  1  4  1  0  0  0  0
  1  5  1  0  0  0  0
  5  6  1  0  0  0  0
  5  7  1  0  0  0  0
  5  8  1  0  0  0  0
  8  9  1  0  0  0  0
  8 10  1  0  0  0  0
  8 11  1  0  0  0  0
 11 12  1  0  0  0  0
 11 13  1  0  0  0  0
 11 14  1  0  0  0  0
 14 15  1  0  0  0  0
 14 16  1  0  0  0  0
 14 17  1  0  0  0  0
 17 18  1  0  0  0  0
 17 19  1  0  0  0  0
 17 20  1  0  0  0  0
M  END
> <VConfSearch Rank>
697

> <Conf_Id>
69

> <Delta U+W>
2.811

> <U+W>
-8.967

> <U>
49.216

> <W>
-58.183

> <W(PB)>
-60.064

> <W(SA)>
1.881

> <Valence>
2.929

> <Coulomb>
46.006

> <VdW>
0.281

> <VdW6>
-4.909

> <VdW12>
5.190

> <Bond>
0.156

> <Angle>
0.974

> <Pdih>
1.799

> <Idih>
0.000

> <Tether>
0.000

$$$$
VeraChem MOL file


 20 19  0  0  0  0  0  0  0  0999 V2000     
   18.1457   20.2705   21.8675 N   0  3  0  0  0  0  0  0  0  0  0  0
   19.0642   20.6890   21.6991 H   0  0  0  0  0  0  0  0  0  0  0  0
   17.8134   19.8997   20.9717 H   0  0  0  0  0  0  0  0  0  0  0  0
   17.5106   21.0326   22.1271 H   0  0  0  0  0  0  0  0  0  0  0  0
   18.1996   19.1955   22.9361 C   0  0  0  0  0  0  0  0  0  0  0  0
   17.1811   18.8167   23.0576 H   0  0  0  0  0  0  0  0  0  0  0  0
   18.5031   19.6567   23.8798 H   0  0  0  0  0  0  0  0  0  0  0  0
   19.1366   18.0150   22.6046 C   0  0  0  0  0  0  0  0  0  0  0  0
   18.8059   17.1506   23.1956 H   0  0  0  0  0  0  0  0  0  0  0  0
   19.0172   17.7234   21.5527 H   0  0  0  0  0  0  0  0  0  0  0  0
   20.6315   18.2676   22.9292 C   0  0  0  0  0  0  0  0  0  0  0  0
   21.1800   17.3298   22.7644 H   0  0  0  0  0  0  0  0  0  0  0  0
   20.7398   18.5008   23.9975 H   0  0  0  0  0  0  0  0  0  0  0  0
   21.2905   19.3857   22.0879 C   0  0  0  0  0  0  0  0  0  0  0  0
   21.0933   19.2157   21.0201 H   0  0  0  0  0  0  0  0  0  0  0  0
   20.8566   20.3588   22.3499 H   0  0  0  0  0  0  0  0  0  0  0  0
   22.8151   19.4489   22.3212 C   0  0  0  0  0  0  0  0  0  0  0  0
   23.2988   18.5062   22.0338 H   0  0  0  0  0  0  0  0  0  0  0  0
   23.2658   20.2529   21.7249 H   0  0  0  0  0  0  0  0  0  0  0  0
   23.0453   19.6432   23.3769 H   0  0  0  0  0  0  0  0  0  0  0  0
  1  2  1  0  0  0  0
  1  3  1  0  0  0  0
  1  4  1  0  0  0  0
  1  5  1  0  0  0  0
  5  6  1  0  0  0  0
  5  7  1  0  0  0  0
  5  8  1  0  0  0  0
  8  9  1  0  0  0  0
  8 10  1  0  0  0  0
  8 11  1  0  0  0  0
 11 12  1  0  0  0  0
 11 13  1  0  0  0  0
 11 14  1  0  0  0  0
 14 15  1  0  0  0  0
 14 16  1  0  0  0  0
 14 17  1  0  0  0  0
 17 18  1  0  0  0  0
 17 19  1  0  0  0  0
 17 20  1  0  0  0  0
M  END
> <VConfSearch Rank>
698

> <Conf_Id>
26

> <Delta U+W>
2.809

> <U+W>
-8.969

> <U>
49.216

> <W>
-58.185

> <W(PB)>
-60.088

> <W(SA)>
1.903

> <Valence>
2.929

> <Coulomb>
46.006

> <VdW>
0.281

> <VdW6>
-4.909

> <VdW12>
5.190

> <Bond>
0.156

> <Angle>
0.974

> <Pdih>
1.799

> <Idih>
0.000

> <Tether>
0.000

$$$$
VeraChem MOL file


 20 19  0  0  0  0  0  0  0  0999 V2000     
   18.8035   17.2667   23.1410 N   0  3  0  0  0  0  0  0  0  0  0  0
   18.2367   17.8090   22.4825 H   0  0  0  0  0  0  0  0  0  0  0  0
   19.0112   16.3686   22.6934 H   0  0  0  0  0  0  0  0  0  0  0  0
   18.2108   17.0654   23.9531 H   0  0  0  0  0  0  0  0  0  0  0  0
   20.0673   18.0062   23.5347 C   0  0  0  0  0  0  0  0  0  0  0  0
   20.6041   17.3864   24.2580 H   0  0  0  0  0  0  0  0  0  0  0  0
   19.7767   18.9345   24.0334 H   0  0  0  0  0  0  0  0  0  0  0  0
   20.9954   18.3239   22.3447 C   0  0  0  0  0  0  0  0  0  0  0  0
   21.9142   18.7871   22.7266 H   0  0  0  0  0  0  0  0  0  0  0  0
   21.3084   17.3836   21.8721 H   0  0  0  0  0  0  0  0  0  0  0  0
   20.3543   19.2450   21.2735 C   0  0  0  0  0  0  0  0  0  0  0  0
   19.5324   18.7100   20.7790 H   0  0  0  0  0  0  0  0  0  0  0  0
   21.0959   19.4418   20.4870 H   0  0  0  0  0  0  0  0  0  0  0  0
   19.8207   20.5967   21.8132 C   0  0  0  0  0  0  0  0  0  0  0  0
   19.3719   21.1545   20.9794 H   0  0  0  0  0  0  0  0  0  0  0  0
   19.0087   20.4251   22.5327 H   0  0  0  0  0  0  0  0  0  0  0  0
   20.9154   21.4716   22.4651 C   0  0  0  0  0  0  0  0  0  0  0  0
   21.7480   21.6445   21.7710 H   0  0  0  0  0  0  0  0  0  0  0  0
   20.5070   22.4500   22.7495 H   0  0  0  0  0  0  0  0  0  0  0  0
   21.3161   21.0048   23.3735 H   0  0  0  0  0  0  0  0  0  0  0  0
  1  2  1  0  0  0  0
  1  3  1  0  0  0  0
  1  4  1  0  0  0  0
  1  5  1  0  0  0  0
  5  6  1  0  0  0  0
  5  7  1  0  0  0  0
  5  8  1  0  0  0  0
  8  9  1  0  0  0  0
  8 10  1  0  0  0  0
  8 11  1  0  0  0  0
 11 12  1  0  0  0  0
 11 13  1  0  0  0  0
 11 14  1  0  0  0  0
 14 15  1  0  0  0  0
 14 16  1  0  0  0  0
 14 17  1  0  0  0  0
 17 18  1  0  0  0  0
 17 19  1  0  0  0  0
 17 20  1  0  0  0  0
M  END
> <VConfSearch Rank>
699

> <Conf_Id>
2

> <Delta U+W>
0.994

> <U+W>
-10.784

> <U>
47.562

> <W>
-58.346

> <W(PB)>
-60.221

> <W(SA)>
1.875

> <Valence>
2.149

> <Coulomb>
45.034

> <VdW>
0.378

> <VdW6>
-5.599

> <VdW12>
5.977

> <Bond>
0.185

> <Angle>
0.935

> <Pdih>
1.028

> <Idih>
0.000

> <Tether>
0.000

$$$$
VeraChem MOL file


 20 19  0  0  0  0  0  0  0  0999 V2000     
   19.1843   19.7144   24.5797 N   0  3  0  0  0  0  0  0  0  0  0  0
   19.4233   19.1446   25.3972 H   0  0  0  0  0  0  0  0  0  0  0  0
   19.9706   20.3492   24.4130 H   0  0  0  0  0  0  0  0  0  0  0  0
   18.3809   20.2939   24.8444 H   0  0  0  0  0  0  0  0  0  0  0  0
   18.8863   18.8589   23.3639 C   0  0  0  0  0  0  0  0  0  0  0  0
   18.6080   19.5227   22.5411 H   0  0  0  0  0  0  0  0  0  0  0  0
   18.0221   18.2325   23.6011 H   0  0  0  0  0  0  0  0  0  0  0  0
   20.0650   17.9628   22.9327 C   0  0  0  0  0  0  0  0  0  0  0  0
   20.3141   17.2773   23.7535 H   0  0  0  0  0  0  0  0  0  0  0  0
   19.7394   17.3264   22.0999 H   0  0  0  0  0  0  0  0  0  0  0  0
   21.3372   18.7493   22.5206 C   0  0  0  0  0  0  0  0  0  0  0  0
   22.1066   18.0337   22.1994 H   0  0  0  0  0  0  0  0  0  0  0  0
   21.7528   19.2559   23.4021 H   0  0  0  0  0  0  0  0  0  0  0  0
   21.1199   19.7947   21.3968 C   0  0  0  0  0  0  0  0  0  0  0  0
   20.4251   20.5760   21.7332 H   0  0  0  0  0  0  0  0  0  0  0  0
   22.0744   20.3035   21.2018 H   0  0  0  0  0  0  0  0  0  0  0  0
   20.6065   19.1772   20.0762 C   0  0  0  0  0  0  0  0  0  0  0  0
   19.6007   18.7549   20.1933 H   0  0  0  0  0  0  0  0  0  0  0  0
   20.5542   19.9408   19.2894 H   0  0  0  0  0  0  0  0  0  0  0  0
   21.2757   18.3805   19.7264 H   0  0  0  0  0  0  0  0  0  0  0  0
  1  2  1  0  0  0  0
  1  3  1  0  0  0  0
  1  4  1  0  0  0  0
  1  5  1  0  0  0  0
  5  6  1  0  0  0  0
  5  7  1  0  0  0  0
  5  8  1  0  0  0  0
  8  9  1  0  0  0  0
  8 10  1  0  0  0  0
  8 11  1  0  0  0  0
 11 12  1  0  0  0  0
 11 13  1  0  0  0  0
 11 14  1  0  0  0  0
 14 15  1  0  0  0  0
 14 16  1  0  0  0  0
 14 17  1  0  0  0  0
 17 18  1  0  0  0  0
 17 19  1  0  0  0  0
 17 20  1  0  0  0  0
M  END
> <VConfSearch Rank>
700

> <Conf_Id>
1

> <Delta U+W>
1.032

> <U+W>
-10.746

> <U>
47.562

> <W>
-58.308

> <W(PB)>
-60.184

> <W(SA)>
1.877

> <Valence>
2.149

> <Coulomb>
45.035

> <VdW>
0.378

> <VdW6>
-5.599

> <VdW12>
5.978

> <Bond>
0.185

> <Angle>
0.935

> <Pdih>
1.028

> <Idih>
0.000

> <Tether>
0.000

$$$$
VeraChem MOL file


 20 19  0  0  0  0  0  0  0  0999 V2000     
   17.9333   19.4621   22.6554 N   0  3  0  0  0  0  0  0  0  0  0  0
   17.4123   18.9671   23.3858 H   0  0  0  0  0  0  0  0  0  0  0  0
   18.4073   20.2514   23.1036 H   0  0  0  0  0  0  0  0  0  0  0  0
   17.2406   19.8562   22.0102 H   0  0  0  0  0  0  0  0  0  0  0  0
   18.9113   18.5486   21.9421 C   0  0  0  0  0  0  0  0  0  0  0  0
   19.4059   19.1293   21.1619 H   0  0  0  0  0  0  0  0  0  0  0  0
   18.3299   17.7602   21.4565 H   0  0  0  0  0  0  0  0  0  0  0  0
   19.9570   17.9035   22.8764 C   0  0  0  0  0  0  0  0  0  0  0  0
   19.4199   17.3387   23.6499 H   0  0  0  0  0  0  0  0  0  0  0  0
   20.5394   17.1622   22.3134 H   0  0  0  0  0  0  0  0  0  0  0  0
   20.9199   18.9076   23.5655 C   0  0  0  0  0  0  0  0  0  0  0  0
   21.3078   18.4307   24.4763 H   0  0  0  0  0  0  0  0  0  0  0  0
   20.3728   19.7943   23.9107 H   0  0  0  0  0  0  0  0  0  0  0  0
   22.1410   19.3376   22.7122 C   0  0  0  0  0  0  0  0  0  0  0  0
   22.7909   19.9686   23.3346 H   0  0  0  0  0  0  0  0  0  0  0  0
   22.7393   18.4539   22.4495 H   0  0  0  0  0  0  0  0  0  0  0  0
   21.7853   20.1176   21.4273 C   0  0  0  0  0  0  0  0  0  0  0  0
   21.0932   20.9425   21.6399 H   0  0  0  0  0  0  0  0  0  0  0  0
   22.6903   20.5468   20.9784 H   0  0  0  0  0  0  0  0  0  0  0  0
   21.3318   19.4619   20.6746 H   0  0  0  0  0  0  0  0  0  0  0  0
  1  2  1  0  0  0  0
  1  3  1  0  0  0  0
  1  4  1  0  0  0  0
  1  5  1  0  0  0  0
  5  6  1  0  0  0  0
  5  7  1  0  0  0  0
  5  8  1  0  0  0  0
  8  9  1  0  0  0  0
  8 10  1  0  0  0  0
  8 11  1  0  0  0  0
 11 12  1  0  0  0  0
 11 13  1  0  0  0  0
 11 14  1  0  0  0  0
 14 15  1  0  0  0  0
 14 16  1  0  0  0  0
 14 17  1  0  0  0  0
 17 18  1  0  0  0  0
 17 19  1  0  0  0  0
 17 20  1  0  0  0  0
M  END
> <VConfSearch Rank>
701

> <Conf_Id>
80

> <Delta U+W>
2.920

> <U+W>
-8.857

> <U>
49.434

> <W>
-58.292

> <W(PB)>
-60.170

> <W(SA)>
1.879

> <Valence>
3.798

> <Coulomb>
45.253

> <VdW>
0.384

> <VdW6>
-5.595

> <VdW12>
5.979

> <Bond>
0.198

> <Angle>
1.368

> <Pdih>
2.231

> <Idih>
0.000

> <Tether>
0.000

$$$$
VeraChem MOL file


 20 19  0  0  0  0  0  0  0  0999 V2000     
   22.3767   19.2855   23.3203 N   0  3  0  0  0  0  0  0  0  0  0  0
   23.0887   19.7976   22.7902 H   0  0  0  0  0  0  0  0  0  0  0  0
   22.7742   19.0949   24.2461 H   0  0  0  0  0  0  0  0  0  0  0  0
   22.2475   18.3808   22.8584 H   0  0  0  0  0  0  0  0  0  0  0  0
   21.0768   20.0609   23.4147 C   0  0  0  0  0  0  0  0  0  0  0  0
   21.2864   20.9888   23.9537 H   0  0  0  0  0  0  0  0  0  0  0  0
   20.3787   19.4749   24.0145 H   0  0  0  0  0  0  0  0  0  0  0  0
   20.4532   20.4018   22.0444 C   0  0  0  0  0  0  0  0  0  0  0  0
   19.5941   21.0695   22.1919 H   0  0  0  0  0  0  0  0  0  0  0  0
   21.1886   20.9811   21.4704 H   0  0  0  0  0  0  0  0  0  0  0  0
   20.0177   19.1709   21.2044 C   0  0  0  0  0  0  0  0  0  0  0  0
   20.7719   18.3756   21.2627 H   0  0  0  0  0  0  0  0  0  0  0  0
   19.9949   19.4752   20.1487 H   0  0  0  0  0  0  0  0  0  0  0  0
   18.6185   18.6005   21.5519 C   0  0  0  0  0  0  0  0  0  0  0  0
   17.8540   19.3751   21.3993 H   0  0  0  0  0  0  0  0  0  0  0  0
   18.3853   17.8003   20.8356 H   0  0  0  0  0  0  0  0  0  0  0  0
   18.4934   18.0301   22.9819 C   0  0  0  0  0  0  0  0  0  0  0  0
   18.4918   18.8296   23.7322 H   0  0  0  0  0  0  0  0  0  0  0  0
   17.5491   17.4815   23.0929 H   0  0  0  0  0  0  0  0  0  0  0  0
   19.3128   17.3356   23.2077 H   0  0  0  0  0  0  0  0  0  0  0  0
  1  2  1  0  0  0  0
  1  3  1  0  0  0  0
  1  4  1  0  0  0  0
  1  5  1  0  0  0  0
  5  6  1  0  0  0  0
  5  7  1  0  0  0  0
  5  8  1  0  0  0  0
  8  9  1  0  0  0  0
  8 10  1  0  0  0  0
  8 11  1  0  0  0  0
 11 12  1  0  0  0  0
 11 13  1  0  0  0  0
 11 14  1  0  0  0  0
 14 15  1  0  0  0  0
 14 16  1  0  0  0  0
 14 17  1  0  0  0  0
 17 18  1  0  0  0  0
 17 19  1  0  0  0  0
 17 20  1  0  0  0  0
M  END
> <VConfSearch Rank>
702

> <Conf_Id>
65

> <Delta U+W>
2.949

> <U+W>
-8.829

> <U>
49.435

> <W>
-58.263

> <W(PB)>
-60.125

> <W(SA)>
1.862

> <Valence>
3.797

> <Coulomb>
45.253

> <VdW>
0.384

> <VdW6>
-5.596

> <VdW12>
5.980

> <Bond>
0.198

> <Angle>
1.369

> <Pdih>
2.230

> <Idih>
0.000

> <Tether>
0.000

$$$$
VeraChem MOL file


 20 19  0  0  0  0  0  0  0  0999 V2000     
   19.6056   17.9163   23.8361 N   0  3  0  0  0  0  0  0  0  0  0  0
   18.7719   17.6672   24.3788 H   0  0  0  0  0  0  0  0  0  0  0  0
   19.3789   17.7784   22.8465 H   0  0  0  0  0  0  0  0  0  0  0  0
   20.3337   17.2374   24.0798 H   0  0  0  0  0  0  0  0  0  0  0  0
   20.0506   19.3402   24.1082 C   0  0  0  0  0  0  0  0  0  0  0  0
   20.2746   19.4063   25.1764 H   0  0  0  0  0  0  0  0  0  0  0  0
   19.2175   20.0150   23.8941 H   0  0  0  0  0  0  0  0  0  0  0  0
   21.2944   19.7723   23.3054 C   0  0  0  0  0  0  0  0  0  0  0  0
   21.7700   20.6006   23.8472 H   0  0  0  0  0  0  0  0  0  0  0  0
   22.0323   18.9591   23.2966 H   0  0  0  0  0  0  0  0  0  0  0  0
   21.0120   20.2545   21.8571 C   0  0  0  0  0  0  0  0  0  0  0  0
   21.9695   20.5800   21.4270 H   0  0  0  0  0  0  0  0  0  0  0  0
   20.3798   21.1531   21.8781 H   0  0  0  0  0  0  0  0  0  0  0  0
   20.3968   19.1934   20.9095 C   0  0  0  0  0  0  0  0  0  0  0  0
   20.8054   19.3463   19.9006 H   0  0  0  0  0  0  0  0  0  0  0  0
   20.7128   18.1841   21.2057 H   0  0  0  0  0  0  0  0  0  0  0  0
   18.8553   19.2851   20.8136 C   0  0  0  0  0  0  0  0  0  0  0  0
   18.3691   19.2133   21.7925 H   0  0  0  0  0  0  0  0  0  0  0  0
   18.5527   20.2408   20.3659 H   0  0  0  0  0  0  0  0  0  0  0  0
   18.4587   18.4827   20.1781 H   0  0  0  0  0  0  0  0  0  0  0  0
  1  2  1  0  0  0  0
  1  3  1  0  0  0  0
  1  4  1  0  0  0  0
  1  5  1  0  0  0  0
  5  6  1  0  0  0  0
  5  7  1  0  0  0  0
  5  8  1  0  0  0  0
  8  9  1  0  0  0  0
  8 10  1  0  0  0  0
  8 11  1  0  0  0  0
 11 12  1  0  0  0  0
 11 13  1  0  0  0  0
 11 14  1  0  0  0  0
 14 15  1  0  0  0  0
 14 16  1  0  0  0  0
 14 17  1  0  0  0  0
 17 18  1  0  0  0  0
 17 19  1  0  0  0  0
 17 20  1  0  0  0  0
M  END
> <VConfSearch Rank>
703

> <Conf_Id>
77

> <Delta U+W>
5.366

> <U+W>
-6.412

> <U>
51.542

> <W>
-57.954

> <W(PB)>
-59.811

> <W(SA)>
1.857

> <Valence>
5.347

> <Coulomb>
45.870

> <VdW>
0.325

> <VdW6>
-6.161

> <VdW12>
6.486

> <Bond>
0.201

> <Angle>
1.484

> <Pdih>
3.662

> <Idih>
0.000

> <Tether>
0.000

$$$$
VeraChem MOL file


 20 19  0  0  0  0  0  0  0  0999 V2000     
   21.5845   18.2383   21.2887 N   0  3  0  0  0  0  0  0  0  0  0  0
   21.3211   18.1448   20.3027 H   0  0  0  0  0  0  0  0  0  0  0  0
   21.5736   19.2378   21.5139 H   0  0  0  0  0  0  0  0  0  0  0  0
   22.5550   17.9168   21.3699 H   0  0  0  0  0  0  0  0  0  0  0  0
   20.6541   17.4568   22.1961 C   0  0  0  0  0  0  0  0  0  0  0  0
   21.0175   17.5371   23.2240 H   0  0  0  0  0  0  0  0  0  0  0  0
   20.7198   16.4081   21.8940 H   0  0  0  0  0  0  0  0  0  0  0  0
   19.1818   17.9102   22.1240 C   0  0  0  0  0  0  0  0  0  0  0  0
   18.9008   18.0961   21.0788 H   0  0  0  0  0  0  0  0  0  0  0  0
   18.5575   17.0699   22.4557 H   0  0  0  0  0  0  0  0  0  0  0  0
   18.8248   19.1401   23.0013 C   0  0  0  0  0  0  0  0  0  0  0  0
   18.9811   18.9013   24.0624 H   0  0  0  0  0  0  0  0  0  0  0  0
   17.7451   19.3157   22.8964 H   0  0  0  0  0  0  0  0  0  0  0  0
   19.5618   20.4544   22.6378 C   0  0  0  0  0  0  0  0  0  0  0  0
   19.8105   20.4724   21.5681 H   0  0  0  0  0  0  0  0  0  0  0  0
   18.8732   21.2966   22.7949 H   0  0  0  0  0  0  0  0  0  0  0  0
   20.8198   20.7049   23.5030 C   0  0  0  0  0  0  0  0  0  0  0  0
   21.3398   21.6145   23.1753 H   0  0  0  0  0  0  0  0  0  0  0  0
   20.5423   20.8446   24.5560 H   0  0  0  0  0  0  0  0  0  0  0  0
   21.5315   19.8736   23.4591 H   0  0  0  0  0  0  0  0  0  0  0  0
  1  2  1  0  0  0  0
  1  3  1  0  0  0  0
  1  4  1  0  0  0  0
  1  5  1  0  0  0  0
  5  6  1  0  0  0  0
  5  7  1  0  0  0  0
  5  8  1  0  0  0  0
  8  9  1  0  0  0  0
  8 10  1  0  0  0  0
  8 11  1  0  0  0  0
 11 12  1  0  0  0  0
 11 13  1  0  0  0  0
 11 14  1  0  0  0  0
 14 15  1  0  0  0  0
 14 16  1  0  0  0  0
 14 17  1  0  0  0  0
 17 18  1  0  0  0  0
 17 19  1  0  0  0  0
 17 20  1  0  0  0  0
M  END
> <VConfSearch Rank>
704

> <Conf_Id>
67

> <Delta U+W>
5.353

> <U+W>
-6.425

> <U>
51.541

> <W>
-57.966

> <W(PB)>
-59.821

> <W(SA)>
1.855

> <Valence>
5.347

> <Coulomb>
45.870

> <VdW>
0.325

> <VdW6>
-6.161

> <VdW12>
6.486

> <Bond>
0.201

> <Angle>
1.485

> <Pdih>
3.662

> <Idih>
0.000

> <Tether>
0.000

$$$$
VeraChem MOL file


 20 19  0  0  0  0  0  0  0  0999 V2000     
   18.0009   21.4636   21.9536 N   0  3  0  0  0  0  0  0  0  0  0  0
   17.1537   20.8882   21.9912 H   0  0  0  0  0  0  0  0  0  0  0  0
   17.7622   22.3714   22.3666 H   0  0  0  0  0  0  0  0  0  0  0  0
   18.2066   21.6325   20.9639 H   0  0  0  0  0  0  0  0  0  0  0  0
   19.1639   20.8074   22.6701 C   0  0  0  0  0  0  0  0  0  0  0  0
   18.8877   20.6858   23.7210 H   0  0  0  0  0  0  0  0  0  0  0  0
   20.0196   21.4859   22.6165 H   0  0  0  0  0  0  0  0  0  0  0  0
   19.5482   19.4411   22.0744 C   0  0  0  0  0  0  0  0  0  0  0  0
   18.6814   18.7681   22.1157 H   0  0  0  0  0  0  0  0  0  0  0  0
   19.8095   19.5654   21.0150 H   0  0  0  0  0  0  0  0  0  0  0  0
   20.7359   18.8072   22.8322 C   0  0  0  0  0  0  0  0  0  0  0  0
   20.4730   18.6891   23.8928 H   0  0  0  0  0  0  0  0  0  0  0  0
   21.5997   19.4854   22.7933 H   0  0  0  0  0  0  0  0  0  0  0  0
   21.1306   17.4345   22.2427 C   0  0  0  0  0  0  0  0  0  0  0  0
   20.2698   16.7522   22.2816 H   0  0  0  0  0  0  0  0  0  0  0  0
   21.3965   17.5484   21.1823 H   0  0  0  0  0  0  0  0  0  0  0  0
   22.3174   16.8049   23.0030 C   0  0  0  0  0  0  0  0  0  0  0  0
   22.0696   16.6465   24.0607 H   0  0  0  0  0  0  0  0  0  0  0  0
   22.5827   15.8316   22.5702 H   0  0  0  0  0  0  0  0  0  0  0  0
   23.2051   17.4488   22.9527 H   0  0  0  0  0  0  0  0  0  0  0  0
  1  2  1  0  0  0  0
  1  3  1  0  0  0  0
  1  4  1  0  0  0  0
  1  5  1  0  0  0  0
  5  6  1  0  0  0  0
  5  7  1  0  0  0  0
  5  8  1  0  0  0  0
  8  9  1  0  0  0  0
  8 10  1  0  0  0  0
  8 11  1  0  0  0  0
 11 12  1  0  0  0  0
 11 13  1  0  0  0  0
 11 14  1  0  0  0  0
 14 15  1  0  0  0  0
 14 16  1  0  0  0  0
 14 17  1  0  0  0  0
 17 18  1  0  0  0  0
 17 19  1  0  0  0  0
 17 20  1  0  0  0  0
M  END
> <VConfSearch Rank>
705

> <Conf_Id>
72

> <Delta U+W>
0.000

> <U+W>
-11.778

> <U>
45.772

> <W>
-57.550

> <W(PB)>
-59.511

> <W(SA)>
1.961

> <Valence>
1.299

> <Coulomb>
44.177

> <VdW>
0.297

> <VdW6>
-3.490

> <VdW12>
3.786

> <Bond>
0.096

> <Angle>
0.381

> <Pdih>
0.822

> <Idih>
0.000

> <Tether>
0.000

$$$$
VeraChem MOL file


 20 19  0  0  0  0  0  0  0  0999 V2000     
   20.4409   21.8978   23.7144 N   0  3  0  0  0  0  0  0  0  0  0  0
   19.4453   21.9403   23.9539 H   0  0  0  0  0  0  0  0  0  0  0  0
   20.9416   21.6026   24.5585 H   0  0  0  0  0  0  0  0  0  0  0  0
   20.7392   22.8579   23.5124 H   0  0  0  0  0  0  0  0  0  0  0  0
   20.7035   20.9691   22.5460 C   0  0  0  0  0  0  0  0  0  0  0  0
   21.7745   20.9966   22.3273 H   0  0  0  0  0  0  0  0  0  0  0  0
   20.1658   21.3588   21.6774 H   0  0  0  0  0  0  0  0  0  0  0  0
   20.2674   19.5179   22.8164 C   0  0  0  0  0  0  0  0  0  0  0  0
   20.7979   19.1359   23.6987 H   0  0  0  0  0  0  0  0  0  0  0  0
   19.1958   19.5045   23.0519 H   0  0  0  0  0  0  0  0  0  0  0  0
   20.5559   18.6064   21.6002 C   0  0  0  0  0  0  0  0  0  0  0  0
   21.6183   18.6926   21.3326 H   0  0  0  0  0  0  0  0  0  0  0  0
   19.9886   18.9616   20.7286 H   0  0  0  0  0  0  0  0  0  0  0  0
   20.2319   17.1143   21.8556 C   0  0  0  0  0  0  0  0  0  0  0  0
   20.5620   16.5280   20.9865 H   0  0  0  0  0  0  0  0  0  0  0  0
   20.8154   16.7483   22.7120 H   0  0  0  0  0  0  0  0  0  0  0  0
   18.7292   16.8440   22.0968 C   0  0  0  0  0  0  0  0  0  0  0  0
   18.1206   17.2261   21.2669 H   0  0  0  0  0  0  0  0  0  0  0  0
   18.5416   15.7657   22.1812 H   0  0  0  0  0  0  0  0  0  0  0  0
   18.3786   17.3124   23.0248 H   0  0  0  0  0  0  0  0  0  0  0  0
  1  2  1  0  0  0  0
  1  3  1  0  0  0  0
  1  4  1  0  0  0  0
  1  5  1  0  0  0  0
  5  6  1  0  0  0  0
  5  7  1  0  0  0  0
  5  8  1  0  0  0  0
  8  9  1  0  0  0  0
  8 10  1  0  0  0  0
  8 11  1  0  0  0  0
 11 12  1  0  0  0  0
 11 13  1  0  0  0  0
 11 14  1  0  0  0  0
 14 15  1  0  0  0  0
 14 16  1  0  0  0  0
 14 17  1  0  0  0  0
 17 18  1  0  0  0  0
 17 19  1  0  0  0  0
 17 20  1  0  0  0  0
M  END
> <VConfSearch Rank>
706

> <Conf_Id>
42

> <Delta U+W>
0.508

> <U+W>
-11.270

> <U>
46.486

> <W>
-57.756

> <W(PB)>
-59.705

> <W(SA)>
1.949

> <Valence>
1.806

> <Coulomb>
44.248

> <VdW>
0.433

> <VdW6>
-4.089

> <VdW12>
4.522

> <Bond>
0.131

> <Angle>
0.628

> <Pdih>
1.047

> <Idih>
0.000

> <Tether>
0.000

$$$$
VeraChem MOL file


 20 19  0  0  0  0  0  0  0  0999 V2000     
   22.6091   20.3957   23.5881 N   0  3  0  0  0  0  0  0  0  0  0  0
   23.2722   19.6354   23.4075 H   0  0  0  0  0  0  0  0  0  0  0  0
   22.6534   21.0312   22.7853 H   0  0  0  0  0  0  0  0  0  0  0  0
   22.9651   20.9145   24.3978 H   0  0  0  0  0  0  0  0  0  0  0  0
   21.2045   19.8781   23.8243 C   0  0  0  0  0  0  0  0  0  0  0  0
   20.5605   20.7353   24.0389 H   0  0  0  0  0  0  0  0  0  0  0  0
   21.2261   19.2352   24.7084 H   0  0  0  0  0  0  0  0  0  0  0  0
   20.6393   19.0932   22.6269 C   0  0  0  0  0  0  0  0  0  0  0  0
   20.6390   19.7420   21.7419 H   0  0  0  0  0  0  0  0  0  0  0  0
   21.2975   18.2427   22.4048 H   0  0  0  0  0  0  0  0  0  0  0  0
   19.2072   18.5827   22.9125 C   0  0  0  0  0  0  0  0  0  0  0  0
   18.5383   19.4365   23.0892 H   0  0  0  0  0  0  0  0  0  0  0  0
   19.2146   17.9988   23.8435 H   0  0  0  0  0  0  0  0  0  0  0  0
   18.6294   17.6981   21.7810 C   0  0  0  0  0  0  0  0  0  0  0  0
   19.2830   16.8299   21.6171 H   0  0  0  0  0  0  0  0  0  0  0  0
   17.6606   17.2953   22.1082 H   0  0  0  0  0  0  0  0  0  0  0  0
   18.4289   18.4566   20.4491 C   0  0  0  0  0  0  0  0  0  0  0  0
   19.3860   18.7760   20.0184 H   0  0  0  0  0  0  0  0  0  0  0  0
   17.9345   17.8121   19.7107 H   0  0  0  0  0  0  0  0  0  0  0  0
   17.8013   19.3459   20.5913 H   0  0  0  0  0  0  0  0  0  0  0  0
  1  2  1  0  0  0  0
  1  3  1  0  0  0  0
  1  4  1  0  0  0  0
  1  5  1  0  0  0  0
  5  6  1  0  0  0  0
  5  7  1  0  0  0  0
  5  8  1  0  0  0  0
  8  9  1  0  0  0  0
  8 10  1  0  0  0  0
  8 11  1  0  0  0  0
 11 12  1  0  0  0  0
 11 13  1  0  0  0  0
 11 14  1  0  0  0  0
 14 15  1  0  0  0  0
 14 16  1  0  0  0  0
 14 17  1  0  0  0  0
 17 18  1  0  0  0  0
 17 19  1  0  0  0  0
 17 20  1  0  0  0  0
M  END
> <VConfSearch Rank>
707

> <Conf_Id>
41

> <Delta U+W>
0.515

> <U+W>
-11.263

> <U>
46.486

> <W>
-57.749

> <W(PB)>
-59.685

> <W(SA)>
1.936

> <Valence>
1.806

> <Coulomb>
44.248

> <VdW>
0.433

> <VdW6>
-4.089

> <VdW12>
4.522

> <Bond>
0.131

> <Angle>
0.628

> <Pdih>
1.047

> <Idih>
0.000

> <Tether>
0.000

$$$$
VeraChem MOL file


 20 19  0  0  0  0  0  0  0  0999 V2000     
   19.2050   17.4696   24.4677 N   0  3  0  0  0  0  0  0  0  0  0  0
   18.6198   17.2912   25.2906 H   0  0  0  0  0  0  0  0  0  0  0  0
   18.6736   17.1558   23.6503 H   0  0  0  0  0  0  0  0  0  0  0  0
   20.0251   16.8604   24.5479 H   0  0  0  0  0  0  0  0  0  0  0  0
   19.5954   18.9312   24.3611 C   0  0  0  0  0  0  0  0  0  0  0  0
   20.1169   19.2020   25.2832 H   0  0  0  0  0  0  0  0  0  0  0  0
   18.6789   19.5246   24.3025 H   0  0  0  0  0  0  0  0  0  0  0  0
   20.4980   19.2504   23.1531 C   0  0  0  0  0  0  0  0  0  0  0  0
   20.8156   20.2973   23.2353 H   0  0  0  0  0  0  0  0  0  0  0  0
   21.4095   18.6403   23.2054 H   0  0  0  0  0  0  0  0  0  0  0  0
   19.7842   19.0246   21.7964 C   0  0  0  0  0  0  0  0  0  0  0  0
   18.8858   19.6551   21.7418 H   0  0  0  0  0  0  0  0  0  0  0  0
   19.4362   17.9851   21.7350 H   0  0  0  0  0  0  0  0  0  0  0  0
   20.6873   19.3049   20.5705 C   0  0  0  0  0  0  0  0  0  0  0  0
   21.5810   18.6667   20.6132 H   0  0  0  0  0  0  0  0  0  0  0  0
   20.1454   19.0129   19.6600 H   0  0  0  0  0  0  0  0  0  0  0  0
   21.1113   20.7860   20.4424 C   0  0  0  0  0  0  0  0  0  0  0  0
   21.7627   21.0929   21.2699 H   0  0  0  0  0  0  0  0  0  0  0  0
   21.6670   20.9468   19.5095 H   0  0  0  0  0  0  0  0  0  0  0  0
   20.2358   21.4480   20.4292 H   0  0  0  0  0  0  0  0  0  0  0  0
  1  2  1  0  0  0  0
  1  3  1  0  0  0  0
  1  4  1  0  0  0  0
  1  5  1  0  0  0  0
  5  6  1  0  0  0  0
  5  7  1  0  0  0  0
  5  8  1  0  0  0  0
  8  9  1  0  0  0  0
  8 10  1  0  0  0  0
  8 11  1  0  0  0  0
 11 12  1  0  0  0  0
 11 13  1  0  0  0  0
 11 14  1  0  0  0  0
 14 15  1  0  0  0  0
 14 16  1  0  0  0  0
 14 17  1  0  0  0  0
 17 18  1  0  0  0  0
 17 19  1  0  0  0  0
 17 20  1  0  0  0  0
M  END
> <VConfSearch Rank>
708

> <Conf_Id>
33

> <Delta U+W>
0.703

> <U+W>
-11.075

> <U>
47.080

> <W>
-58.154

> <W(PB)>
-60.053

> <W(SA)>
1.899

> <Valence>
1.943

> <Coulomb>
44.572

> <VdW>
0.565

> <VdW6>
-4.575

> <VdW12>
5.139

> <Bond>
0.158

> <Angle>
0.700

> <Pdih>
1.085

> <Idih>
0.000

> <Tether>
0.000

$$$$
VeraChem MOL file


 20 19  0  0  0  0  0  0  0  0999 V2000     
   18.3743   17.3856   21.2462 N   0  3  0  0  0  0  0  0  0  0  0  0
   17.7463   17.1287   20.4774 H   0  0  0  0  0  0  0  0  0  0  0  0
   18.7384   16.5114   21.6379 H   0  0  0  0  0  0  0  0  0  0  0  0
   17.7965   17.8238   21.9694 H   0  0  0  0  0  0  0  0  0  0  0  0
   19.4885   18.3029   20.7800 C   0  0  0  0  0  0  0  0  0  0  0  0
   19.0335   19.2014   20.3543 H   0  0  0  0  0  0  0  0  0  0  0  0
   20.0301   17.7862   19.9830 H   0  0  0  0  0  0  0  0  0  0  0  0
   20.4777   18.7002   21.8933 C   0  0  0  0  0  0  0  0  0  0  0  0
   20.9199   17.7952   22.3307 H   0  0  0  0  0  0  0  0  0  0  0  0
   21.3004   19.2598   21.4311 H   0  0  0  0  0  0  0  0  0  0  0  0
   19.8180   19.5588   23.0018 C   0  0  0  0  0  0  0  0  0  0  0  0
   18.9728   19.0086   23.4359 H   0  0  0  0  0  0  0  0  0  0  0  0
   19.3977   20.4731   22.5603 H   0  0  0  0  0  0  0  0  0  0  0  0
   20.7878   19.9370   24.1478 C   0  0  0  0  0  0  0  0  0  0  0  0
   20.2171   20.4424   24.9395 H   0  0  0  0  0  0  0  0  0  0  0  0
   21.2006   19.0253   24.6018 H   0  0  0  0  0  0  0  0  0  0  0  0
   21.9415   20.8631   23.6992 C   0  0  0  0  0  0  0  0  0  0  0  0
   21.5554   21.7684   23.2132 H   0  0  0  0  0  0  0  0  0  0  0  0
   22.5404   21.1766   24.5640 H   0  0  0  0  0  0  0  0  0  0  0  0
   22.6167   20.3571   22.9982 H   0  0  0  0  0  0  0  0  0  0  0  0
  1  2  1  0  0  0  0
  1  3  1  0  0  0  0
  1  4  1  0  0  0  0
  1  5  1  0  0  0  0
  5  6  1  0  0  0  0
  5  7  1  0  0  0  0
  5  8  1  0  0  0  0
  8  9  1  0  0  0  0
  8 10  1  0  0  0  0
  8 11  1  0  0  0  0
 11 12  1  0  0  0  0
 11 13  1  0  0  0  0
 11 14  1  0  0  0  0
 14 15  1  0  0  0  0
 14 16  1  0  0  0  0
 14 17  1  0  0  0  0
 17 18  1  0  0  0  0
 17 19  1  0  0  0  0
 17 20  1  0  0  0  0
M  END
> <VConfSearch Rank>
709

> <Conf_Id>
24

> <Delta U+W>
0.847

> <U+W>
-10.931

> <U>
47.080

> <W>
-58.011

> <W(PB)>
-59.914

> <W(SA)>
1.903

> <Valence>
1.943

> <Coulomb>
44.572

> <VdW>
0.565

> <VdW6>
-4.575

> <VdW12>
5.140

> <Bond>
0.158

> <Angle>
0.700

> <Pdih>
1.085

> <Idih>
0.000

> <Tether>
0.000

$$$$
VeraChem MOL file


 20 19  0  0  0  0  0  0  0  0999 V2000     
   20.7797   17.5182   24.5560 N   0  3  0  0  0  0  0  0  0  0  0  0
   21.6982   17.1091   24.7568 H   0  0  0  0  0  0  0  0  0  0  0  0
   20.6275   18.2606   25.2459 H   0  0  0  0  0  0  0  0  0  0  0  0
   20.0833   16.7890   24.7396 H   0  0  0  0  0  0  0  0  0  0  0  0
   20.6933   18.0386   23.1354 C   0  0  0  0  0  0  0  0  0  0  0  0
   20.8936   17.2048   22.4572 H   0  0  0  0  0  0  0  0  0  0  0  0
   21.4800   18.7861   23.0032 H   0  0  0  0  0  0  0  0  0  0  0  0
   19.3246   18.6610   22.8010 C   0  0  0  0  0  0  0  0  0  0  0  0
   18.5384   17.9149   22.9769 H   0  0  0  0  0  0  0  0  0  0  0  0
   19.1185   19.4924   23.4871 H   0  0  0  0  0  0  0  0  0  0  0  0
   19.2305   19.1492   21.3337 C   0  0  0  0  0  0  0  0  0  0  0  0
   18.2297   19.5685   21.1613 H   0  0  0  0  0  0  0  0  0  0  0  0
   19.3143   18.2824   20.6635 H   0  0  0  0  0  0  0  0  0  0  0  0
   20.2966   20.1986   20.9272 C   0  0  0  0  0  0  0  0  0  0  0  0
   21.3028   19.7624   20.9919 H   0  0  0  0  0  0  0  0  0  0  0  0
   20.1482   20.4570   19.8694 H   0  0  0  0  0  0  0  0  0  0  0  0
   20.2365   21.4936   21.7690 C   0  0  0  0  0  0  0  0  0  0  0  0
   20.9457   22.2368   21.3823 H   0  0  0  0  0  0  0  0  0  0  0  0
   19.2336   21.9388   21.7376 H   0  0  0  0  0  0  0  0  0  0  0  0
   20.4965   21.3045   22.8179 H   0  0  0  0  0  0  0  0  0  0  0  0
  1  2  1  0  0  0  0
  1  3  1  0  0  0  0
  1  4  1  0  0  0  0
  1  5  1  0  0  0  0
  5  6  1  0  0  0  0
  5  7  1  0  0  0  0
  5  8  1  0  0  0  0
  8  9  1  0  0  0  0
  8 10  1  0  0  0  0
  8 11  1  0  0  0  0
 11 12  1  0  0  0  0
 11 13  1  0  0  0  0
 11 14  1  0  0  0  0
 14 15  1  0  0  0  0
 14 16  1  0  0  0  0
 14 17  1  0  0  0  0
 17 18  1  0  0  0  0
 17 19  1  0  0  0  0
 17 20  1  0  0  0  0
M  END
> <VConfSearch Rank>
710

> <Conf_Id>
64

> <Delta U+W>
0.707

> <U+W>
-11.070

> <U>
47.077

> <W>
-58.148

> <W(PB)>
-60.054

> <W(SA)>
1.906

> <Valence>
2.039

> <Coulomb>
44.655

> <VdW>
0.383

> <VdW6>
-4.912

> <VdW12>
5.295

> <Bond>
0.159

> <Angle>
0.856

> <Pdih>
1.024

> <Idih>
0.000

> <Tether>
0.000

$$$$
VeraChem MOL file


 20 19  0  0  0  0  0  0  0  0999 V2000     
   22.5241   20.0244   23.5944 N   0  3  0  0  0  0  0  0  0  0  0  0
   22.9038   20.8531   23.1258 H   0  0  0  0  0  0  0  0  0  0  0  0
   22.0241   20.3517   24.4269 H   0  0  0  0  0  0  0  0  0  0  0  0
   23.3255   19.4766   23.9247 H   0  0  0  0  0  0  0  0  0  0  0  0
   21.6289   19.2158   22.6772 C   0  0  0  0  0  0  0  0  0  0  0  0
   21.2872   18.3372   23.2306 H   0  0  0  0  0  0  0  0  0  0  0  0
   22.2311   18.8762   21.8303 H   0  0  0  0  0  0  0  0  0  0  0  0
   20.4136   20.0103   22.1630 C   0  0  0  0  0  0  0  0  0  0  0  0
   19.8134   20.3596   23.0128 H   0  0  0  0  0  0  0  0  0  0  0  0
   20.7671   20.9118   21.6450 H   0  0  0  0  0  0  0  0  0  0  0  0
   19.5291   19.1903   21.1908 C   0  0  0  0  0  0  0  0  0  0  0  0
   20.1120   18.9572   20.2890 H   0  0  0  0  0  0  0  0  0  0  0  0
   18.6920   19.8180   20.8553 H   0  0  0  0  0  0  0  0  0  0  0  0
   18.9686   17.8694   21.7777 C   0  0  0  0  0  0  0  0  0  0  0  0
   18.3764   17.3648   21.0014 H   0  0  0  0  0  0  0  0  0  0  0  0
   19.7912   17.1834   22.0219 H   0  0  0  0  0  0  0  0  0  0  0  0
   18.0794   18.0793   23.0243 C   0  0  0  0  0  0  0  0  0  0  0  0
   17.2602   18.7785   22.8119 H   0  0  0  0  0  0  0  0  0  0  0  0
   17.6342   17.1281   23.3436 H   0  0  0  0  0  0  0  0  0  0  0  0
   18.6573   18.4728   23.8697 H   0  0  0  0  0  0  0  0  0  0  0  0
  1  2  1  0  0  0  0
  1  3  1  0  0  0  0
  1  4  1  0  0  0  0
  1  5  1  0  0  0  0
  5  6  1  0  0  0  0
  5  7  1  0  0  0  0
  5  8  1  0  0  0  0
  8  9  1  0  0  0  0
  8 10  1  0  0  0  0
  8 11  1  0  0  0  0
 11 12  1  0  0  0  0
 11 13  1  0  0  0  0
 11 14  1  0  0  0  0
 14 15  1  0  0  0  0
 14 16  1  0  0  0  0
 14 17  1  0  0  0  0
 17 18  1  0  0  0  0
 17 19  1  0  0  0  0
 17 20  1  0  0  0  0
M  END
> <VConfSearch Rank>
711

> <Conf_Id>
22

> <Delta U+W>
0.731

> <U+W>
-11.047

> <U>
47.078

> <W>
-58.125

> <W(PB)>
-60.031

> <W(SA)>
1.906

> <Valence>
2.039

> <Coulomb>
44.655

> <VdW>
0.383

> <VdW6>
-4.913

> <VdW12>
5.296

> <Bond>
0.159

> <Angle>
0.856

> <Pdih>
1.024

> <Idih>
0.000

> <Tether>
0.000

$$$$
VeraChem MOL file


 20 19  0  0  0  0  0  0  0  0999 V2000     
   22.4979   18.6478   21.1438 N   0  3  0  0  0  0  0  0  0  0  0  0
   22.1872   17.9409   20.4700 H   0  0  0  0  0  0  0  0  0  0  0  0
   22.8465   19.4459   20.6037 H   0  0  0  0  0  0  0  0  0  0  0  0
   23.3025   18.2514   21.6409 H   0  0  0  0  0  0  0  0  0  0  0  0
   21.3892   19.0489   22.0959 C   0  0  0  0  0  0  0  0  0  0  0  0
   21.7956   19.7803   22.7996 H   0  0  0  0  0  0  0  0  0  0  0  0
   21.0922   18.1576   22.6533 H   0  0  0  0  0  0  0  0  0  0  0  0
   20.1633   19.6429   21.3796 C   0  0  0  0  0  0  0  0  0  0  0  0
   20.4971   20.4630   20.7300 H   0  0  0  0  0  0  0  0  0  0  0  0
   19.7226   18.8843   20.7192 H   0  0  0  0  0  0  0  0  0  0  0  0
   19.0777   20.1897   22.3411 C   0  0  0  0  0  0  0  0  0  0  0  0
   18.3023   20.6667   21.7257 H   0  0  0  0  0  0  0  0  0  0  0  0
   19.4944   20.9911   22.9666 H   0  0  0  0  0  0  0  0  0  0  0  0
   18.3926   19.1187   23.2292 C   0  0  0  0  0  0  0  0  0  0  0  0
   17.3748   19.4630   23.4611 H   0  0  0  0  0  0  0  0  0  0  0  0
   18.2731   18.1797   22.6708 H   0  0  0  0  0  0  0  0  0  0  0  0
   19.1195   18.8571   24.5693 C   0  0  0  0  0  0  0  0  0  0  0  0
   20.1144   18.4232   24.4250 H   0  0  0  0  0  0  0  0  0  0  0  0
   19.2327   19.7857   25.1437 H   0  0  0  0  0  0  0  0  0  0  0  0
   18.5430   18.1547   25.1853 H   0  0  0  0  0  0  0  0  0  0  0  0
  1  2  1  0  0  0  0
  1  3  1  0  0  0  0
  1  4  1  0  0  0  0
  1  5  1  0  0  0  0
  5  6  1  0  0  0  0
  5  7  1  0  0  0  0
  5  8  1  0  0  0  0
  8  9  1  0  0  0  0
  8 10  1  0  0  0  0
  8 11  1  0  0  0  0
 11 12  1  0  0  0  0
 11 13  1  0  0  0  0
 11 14  1  0  0  0  0
 14 15  1  0  0  0  0
 14 16  1  0  0  0  0
 14 17  1  0  0  0  0
 17 18  1  0  0  0  0
 17 19  1  0  0  0  0
 17 20  1  0  0  0  0
M  END
> <VConfSearch Rank>
712

> <Conf_Id>
61

> <Delta U+W>
2.669

> <U+W>
-9.108

> <U>
48.916

> <W>
-58.025

> <W(PB)>
-59.935

> <W(SA)>
1.911

> <Valence>
3.785

> <Coulomb>
44.716

> <VdW>
0.415

> <VdW6>
-4.836

> <VdW12>
5.251

> <Bond>
0.175

> <Angle>
1.195

> <Pdih>
2.415

> <Idih>
0.000

> <Tether>
0.000

$$$$
VeraChem MOL file


 20 19  0  0  0  0  0  0  0  0999 V2000     
   19.1597   20.2324   24.1312 N   0  3  0  0  0  0  0  0  0  0  0  0
   19.1091   20.3493   25.1487 H   0  0  0  0  0  0  0  0  0  0  0  0
   18.4460   20.8464   23.7263 H   0  0  0  0  0  0  0  0  0  0  0  0
   18.8818   19.2694   23.9252 H   0  0  0  0  0  0  0  0  0  0  0  0
   20.5435   20.5499   23.5973 C   0  0  0  0  0  0  0  0  0  0  0  0
   21.2686   19.9074   24.1039 H   0  0  0  0  0  0  0  0  0  0  0  0
   20.7602   21.5858   23.8720 H   0  0  0  0  0  0  0  0  0  0  0  0
   20.6862   20.3970   22.0684 C   0  0  0  0  0  0  0  0  0  0  0  0
   19.8051   20.8158   21.5642 H   0  0  0  0  0  0  0  0  0  0  0  0
   21.5366   21.0142   21.7494 H   0  0  0  0  0  0  0  0  0  0  0  0
   20.9459   18.9464   21.5869 C   0  0  0  0  0  0  0  0  0  0  0  0
   21.8628   18.5635   22.0561 H   0  0  0  0  0  0  0  0  0  0  0  0
   21.1451   18.9755   20.5066 H   0  0  0  0  0  0  0  0  0  0  0  0
   19.7814   17.9639   21.8533 C   0  0  0  0  0  0  0  0  0  0  0  0
   19.6638   17.8038   22.9324 H   0  0  0  0  0  0  0  0  0  0  0  0
   18.8396   18.3907   21.4808 H   0  0  0  0  0  0  0  0  0  0  0  0
   20.0246   16.5975   21.1775 C   0  0  0  0  0  0  0  0  0  0  0  0
   19.1946   15.9094   21.3841 H   0  0  0  0  0  0  0  0  0  0  0  0
   20.1091   16.7042   20.0882 H   0  0  0  0  0  0  0  0  0  0  0  0
   20.9475   16.1325   21.5480 H   0  0  0  0  0  0  0  0  0  0  0  0
  1  2  1  0  0  0  0
  1  3  1  0  0  0  0
  1  4  1  0  0  0  0
  1  5  1  0  0  0  0
  5  6  1  0  0  0  0
  5  7  1  0  0  0  0
  5  8  1  0  0  0  0
  8  9  1  0  0  0  0
  8 10  1  0  0  0  0
  8 11  1  0  0  0  0
 11 12  1  0  0  0  0
 11 13  1  0  0  0  0
 11 14  1  0  0  0  0
 14 15  1  0  0  0  0
 14 16  1  0  0  0  0
 14 17  1  0  0  0  0
 17 18  1  0  0  0  0
 17 19  1  0  0  0  0
 17 20  1  0  0  0  0
M  END
> <VConfSearch Rank>
713

> <Conf_Id>
69

> <Delta U+W>
2.811

> <U+W>
-8.967

> <U>
49.216

> <W>
-58.183

> <W(PB)>
-60.064

> <W(SA)>
1.881

> <Valence>
2.929

> <Coulomb>
46.006

> <VdW>
0.281

> <VdW6>
-4.909

> <VdW12>
5.190

> <Bond>
0.156

> <Angle>
0.974

> <Pdih>
1.799

> <Idih>
0.000

> <Tether>
0.000

$$$$
VeraChem MOL file


 20 19  0  0  0  0  0  0  0  0999 V2000     
   19.2245   20.4605   20.7323 N   0  3  0  0  0  0  0  0  0  0  0  0
   20.1577   20.6338   21.1147 H   0  0  0  0  0  0  0  0  0  0  0  0
   19.3484   19.9542   19.8499 H   0  0  0  0  0  0  0  0  0  0  0  0
   18.8213   21.3734   20.4965 H   0  0  0  0  0  0  0  0  0  0  0  0
   18.3475   19.6929   21.7030 C   0  0  0  0  0  0  0  0  0  0  0  0
   17.3748   19.5654   21.2201 H   0  0  0  0  0  0  0  0  0  0  0  0
   18.2025   20.3025   22.5990 H   0  0  0  0  0  0  0  0  0  0  0  0
   18.8968   18.3055   22.0965 C   0  0  0  0  0  0  0  0  0  0  0  0
   18.0498   17.6963   22.4392 H   0  0  0  0  0  0  0  0  0  0  0  0
   19.2963   17.7936   21.2109 H   0  0  0  0  0  0  0  0  0  0  0  0
   19.9540   18.3284   23.2304 C   0  0  0  0  0  0  0  0  0  0  0  0
   20.1840   17.2893   23.5040 H   0  0  0  0  0  0  0  0  0  0  0  0
   19.5190   18.7910   24.1271 H   0  0  0  0  0  0  0  0  0  0  0  0
   21.2714   19.0515   22.8644 C   0  0  0  0  0  0  0  0  0  0  0  0
   21.6565   18.6665   21.9097 H   0  0  0  0  0  0  0  0  0  0  0  0
   21.0874   20.1252   22.7339 H   0  0  0  0  0  0  0  0  0  0  0  0
   22.3443   18.8663   23.9588 C   0  0  0  0  0  0  0  0  0  0  0  0
   22.5902   17.8053   24.0965 H   0  0  0  0  0  0  0  0  0  0  0  0
   23.2688   19.3930   23.6887 H   0  0  0  0  0  0  0  0  0  0  0  0
   21.9989   19.2648   24.9217 H   0  0  0  0  0  0  0  0  0  0  0  0
  1  2  1  0  0  0  0
  1  3  1  0  0  0  0
  1  4  1  0  0  0  0
  1  5  1  0  0  0  0
  5  6  1  0  0  0  0
  5  7  1  0  0  0  0
  5  8  1  0  0  0  0
  8  9  1  0  0  0  0
  8 10  1  0  0  0  0
  8 11  1  0  0  0  0
 11 12  1  0  0  0  0
 11 13  1  0  0  0  0
 11 14  1  0  0  0  0
 14 15  1  0  0  0  0
 14 16  1  0  0  0  0
 14 17  1  0  0  0  0
 17 18  1  0  0  0  0
 17 19  1  0  0  0  0
 17 20  1  0  0  0  0
M  END
> <VConfSearch Rank>
714

> <Conf_Id>
26

> <Delta U+W>
2.809

> <U+W>
-8.969

> <U>
49.216

> <W>
-58.185

> <W(PB)>
-60.088

> <W(SA)>
1.903

> <Valence>
2.929

> <Coulomb>
46.006

> <VdW>
0.281

> <VdW6>
-4.909

> <VdW12>
5.190

> <Bond>
0.156

> <Angle>
0.974

> <Pdih>
1.799

> <Idih>
0.000

> <Tether>
0.000

$$$$
VeraChem MOL file


 20 19  0  0  0  0  0  0  0  0999 V2000     
   20.9249   17.3197   21.1268 N   0  3  0  0  0  0  0  0  0  0  0  0
   20.7773   16.9650   22.0762 H   0  0  0  0  0  0  0  0  0  0  0  0
   20.2434   16.8533   20.5200 H   0  0  0  0  0  0  0  0  0  0  0  0
   21.8542   17.0047   20.8292 H   0  0  0  0  0  0  0  0  0  0  0  0
   20.7947   18.8291   21.0651 C   0  0  0  0  0  0  0  0  0  0  0  0
   20.9941   19.1387   20.0356 H   0  0  0  0  0  0  0  0  0  0  0  0
   21.5670   19.2633   21.7052 H   0  0  0  0  0  0  0  0  0  0  0  0
   19.4086   19.3495   21.4967 C   0  0  0  0  0  0  0  0  0  0  0  0
   19.3773   20.4366   21.3491 H   0  0  0  0  0  0  0  0  0  0  0  0
   18.6443   18.9343   20.8265 H   0  0  0  0  0  0  0  0  0  0  0  0
   19.0377   19.0125   22.9649 C   0  0  0  0  0  0  0  0  0  0  0  0
   18.9103   17.9265   23.0675 H   0  0  0  0  0  0  0  0  0  0  0  0
   18.0549   19.4491   23.1904 H   0  0  0  0  0  0  0  0  0  0  0  0
   20.0609   19.5001   24.0225 C   0  0  0  0  0  0  0  0  0  0  0  0
   19.7113   19.1906   25.0174 H   0  0  0  0  0  0  0  0  0  0  0  0
   21.0281   19.0012   23.8743 H   0  0  0  0  0  0  0  0  0  0  0  0
   20.2617   21.0326   24.0202 C   0  0  0  0  0  0  0  0  0  0  0  0
   19.3057   21.5562   24.1503 H   0  0  0  0  0  0  0  0  0  0  0  0
   20.9242   21.3348   24.8415 H   0  0  0  0  0  0  0  0  0  0  0  0
   20.7182   21.3775   23.0842 H   0  0  0  0  0  0  0  0  0  0  0  0
  1  2  1  0  0  0  0
  1  3  1  0  0  0  0
  1  4  1  0  0  0  0
  1  5  1  0  0  0  0
  5  6  1  0  0  0  0
  5  7  1  0  0  0  0
  5  8  1  0  0  0  0
  8  9  1  0  0  0  0
  8 10  1  0  0  0  0
  8 11  1  0  0  0  0
 11 12  1  0  0  0  0
 11 13  1  0  0  0  0
 11 14  1  0  0  0  0
 14 15  1  0  0  0  0
 14 16  1  0  0  0  0
 14 17  1  0  0  0  0
 17 18  1  0  0  0  0
 17 19  1  0  0  0  0
 17 20  1  0  0  0  0
M  END
> <VConfSearch Rank>
715

> <Conf_Id>
2

> <Delta U+W>
0.994

> <U+W>
-10.784

> <U>
47.562

> <W>
-58.346

> <W(PB)>
-60.221

> <W(SA)>
1.875

> <Valence>
2.149

> <Coulomb>
45.034

> <VdW>
0.378

> <VdW6>
-5.599

> <VdW12>
5.977

> <Bond>
0.185

> <Angle>
0.935

> <Pdih>
1.028

> <Idih>
0.000

> <Tether>
0.000

$$$$
VeraChem MOL file


 20 19  0  0  0  0  0  0  0  0999 V2000     
   19.8928   21.3267   21.6029 N   0  3  0  0  0  0  0  0  0  0  0  0
   20.6260   21.6859   20.9837 H   0  0  0  0  0  0  0  0  0  0  0  0
   19.2963   20.7123   21.0411 H   0  0  0  0  0  0  0  0  0  0  0  0
   19.3190   22.1290   21.8829 H   0  0  0  0  0  0  0  0  0  0  0  0
   20.4726   20.6023   22.8022 C   0  0  0  0  0  0  0  0  0  0  0  0
   19.6436   20.2753   23.4352 H   0  0  0  0  0  0  0  0  0  0  0  0
   21.0689   21.3220   23.3696 H   0  0  0  0  0  0  0  0  0  0  0  0
   21.3510   19.3909   22.4292 C   0  0  0  0  0  0  0  0  0  0  0  0
   22.1988   19.7352   21.8222 H   0  0  0  0  0  0  0  0  0  0  0  0
   21.7887   18.9756   23.3460 H   0  0  0  0  0  0  0  0  0  0  0  0
   20.5937   18.2752   21.6620 C   0  0  0  0  0  0  0  0  0  0  0  0
   21.2872   17.4449   21.4701 H   0  0  0  0  0  0  0  0  0  0  0  0
   20.2990   18.6502   20.6727 H   0  0  0  0  0  0  0  0  0  0  0  0
   19.3374   17.7262   22.3855 C   0  0  0  0  0  0  0  0  0  0  0  0
   18.5879   18.5207   22.5020 H   0  0  0  0  0  0  0  0  0  0  0  0
   18.8709   16.9627   21.7474 H   0  0  0  0  0  0  0  0  0  0  0  0
   19.6484   17.1002   23.7640 C   0  0  0  0  0  0  0  0  0  0  0  0
   20.0116   17.8525   24.4753 H   0  0  0  0  0  0  0  0  0  0  0  0
   18.7451   16.6486   24.1939 H   0  0  0  0  0  0  0  0  0  0  0  0
   20.4085   16.3130   23.6777 H   0  0  0  0  0  0  0  0  0  0  0  0
  1  2  1  0  0  0  0
  1  3  1  0  0  0  0
  1  4  1  0  0  0  0
  1  5  1  0  0  0  0
  5  6  1  0  0  0  0
  5  7  1  0  0  0  0
  5  8  1  0  0  0  0
  8  9  1  0  0  0  0
  8 10  1  0  0  0  0
  8 11  1  0  0  0  0
 11 12  1  0  0  0  0
 11 13  1  0  0  0  0
 11 14  1  0  0  0  0
 14 15  1  0  0  0  0
 14 16  1  0  0  0  0
 14 17  1  0  0  0  0
 17 18  1  0  0  0  0
 17 19  1  0  0  0  0
 17 20  1  0  0  0  0
M  END
> <VConfSearch Rank>
716

> <Conf_Id>
1

> <Delta U+W>
1.032

> <U+W>
-10.746

> <U>
47.562

> <W>
-58.308

> <W(PB)>
-60.184

> <W(SA)>
1.877

> <Valence>
2.149

> <Coulomb>
45.035

> <VdW>
0.378

> <VdW6>
-5.599

> <VdW12>
5.978

> <Bond>
0.185

> <Angle>
0.935

> <Pdih>
1.028

> <Idih>
0.000

> <Tether>
0.000

$$$$
VeraChem MOL file


 20 19  0  0  0  0  0  0  0  0999 V2000     
   22.4967   18.9408   23.0454 N   0  3  0  0  0  0  0  0  0  0  0  0
   22.8464   18.0504   23.4129 H   0  0  0  0  0  0  0  0  0  0  0  0
   22.4107   18.8366   22.0303 H   0  0  0  0  0  0  0  0  0  0  0  0
   23.2273   19.6402   23.2137 H   0  0  0  0  0  0  0  0  0  0  0  0
   21.1799   19.3372   23.6848 C   0  0  0  0  0  0  0  0  0  0  0  0
   20.8834   20.3030   23.2728 H   0  0  0  0  0  0  0  0  0  0  0  0
   21.3613   19.4697   24.7549 H   0  0  0  0  0  0  0  0  0  0  0  0
   20.0537   18.3001   23.4874 C   0  0  0  0  0  0  0  0  0  0  0  0
   20.3948   17.3436   23.9051 H   0  0  0  0  0  0  0  0  0  0  0  0
   19.1802   18.5940   24.0842 H   0  0  0  0  0  0  0  0  0  0  0  0
   19.6253   18.0792   22.0116 C   0  0  0  0  0  0  0  0  0  0  0  0
   19.1654   17.0838   21.9403 H   0  0  0  0  0  0  0  0  0  0  0  0
   20.5038   18.0426   21.3545 H   0  0  0  0  0  0  0  0  0  0  0  0
   18.5978   19.1040   21.4656 C   0  0  0  0  0  0  0  0  0  0  0  0
   18.3045   18.7916   20.4535 H   0  0  0  0  0  0  0  0  0  0  0  0
   17.6811   19.0680   22.0707 H   0  0  0  0  0  0  0  0  0  0  0  0
   19.1130   20.5587   21.3997 C   0  0  0  0  0  0  0  0  0  0  0  0
   20.0882   20.6144   20.8992 H   0  0  0  0  0  0  0  0  0  0  0  0
   18.4110   21.1871   20.8364 H   0  0  0  0  0  0  0  0  0  0  0  0
   19.2049   20.9957   22.4010 H   0  0  0  0  0  0  0  0  0  0  0  0
  1  2  1  0  0  0  0
  1  3  1  0  0  0  0
  1  4  1  0  0  0  0
  1  5  1  0  0  0  0
  5  6  1  0  0  0  0
  5  7  1  0  0  0  0
  5  8  1  0  0  0  0
  8  9  1  0  0  0  0
  8 10  1  0  0  0  0
  8 11  1  0  0  0  0
 11 12  1  0  0  0  0
 11 13  1  0  0  0  0
 11 14  1  0  0  0  0
 14 15  1  0  0  0  0
 14 16  1  0  0  0  0
 14 17  1  0  0  0  0
 17 18  1  0  0  0  0
 17 19  1  0  0  0  0
 17 20  1  0  0  0  0
M  END
> <VConfSearch Rank>
717

> <Conf_Id>
80

> <Delta U+W>
2.920

> <U+W>
-8.857

> <U>
49.434

> <W>
-58.292

> <W(PB)>
-60.170

> <W(SA)>
1.879

> <Valence>
3.798

> <Coulomb>
45.253

> <VdW>
0.384

> <VdW6>
-5.595

> <VdW12>
5.979

> <Bond>
0.198

> <Angle>
1.368

> <Pdih>
2.231

> <Idih>
0.000

> <Tether>
0.000

$$$$
VeraChem MOL file


 20 19  0  0  0  0  0  0  0  0999 V2000     
   22.4169   18.9091   21.8216 N   0  3  0  0  0  0  0  0  0  0  0  0
   23.0092   18.2605   22.3495 H   0  0  0  0  0  0  0  0  0  0  0  0
   22.9177   19.1321   20.9551 H   0  0  0  0  0  0  0  0  0  0  0  0
   22.3580   19.7755   22.3642 H   0  0  0  0  0  0  0  0  0  0  0  0
   21.0458   18.3233   21.5445 C   0  0  0  0  0  0  0  0  0  0  0  0
   21.1883   17.4307   20.9293 H   0  0  0  0  0  0  0  0  0  0  0  0
   20.4826   19.0495   20.9563 H   0  0  0  0  0  0  0  0  0  0  0  0
   20.2625   17.9399   22.8182 C   0  0  0  0  0  0  0  0  0  0  0  0
   19.3451   17.4076   22.5344 H   0  0  0  0  0  0  0  0  0  0  0  0
   20.8657   17.2178   23.3843 H   0  0  0  0  0  0  0  0  0  0  0  0
   19.9063   19.1329   23.7457 C   0  0  0  0  0  0  0  0  0  0  0  0
   20.7545   19.8243   23.8306 H   0  0  0  0  0  0  0  0  0  0  0  0
   19.7500   18.7365   24.7585 H   0  0  0  0  0  0  0  0  0  0  0  0
   18.6253   19.9121   23.3509 C   0  0  0  0  0  0  0  0  0  0  0  0
   17.7608   19.2336   23.3608 H   0  0  0  0  0  0  0  0  0  0  0  0
   18.4276   20.6652   24.1266 H   0  0  0  0  0  0  0  0  0  0  0  0
   18.7023   20.6257   21.9831 C   0  0  0  0  0  0  0  0  0  0  0  0
   18.6713   19.9075   21.1554 H   0  0  0  0  0  0  0  0  0  0  0  0
   17.8466   21.3015   21.8564 H   0  0  0  0  0  0  0  0  0  0  0  0
   19.6179   21.2249   21.8966 H   0  0  0  0  0  0  0  0  0  0  0  0
  1  2  1  0  0  0  0
  1  3  1  0  0  0  0
  1  4  1  0  0  0  0
  1  5  1  0  0  0  0
  5  6  1  0  0  0  0
  5  7  1  0  0  0  0
  5  8  1  0  0  0  0
  8  9  1  0  0  0  0
  8 10  1  0  0  0  0
  8 11  1  0  0  0  0
 11 12  1  0  0  0  0
 11 13  1  0  0  0  0
 11 14  1  0  0  0  0
 14 15  1  0  0  0  0
 14 16  1  0  0  0  0
 14 17  1  0  0  0  0
 17 18  1  0  0  0  0
 17 19  1  0  0  0  0
 17 20  1  0  0  0  0
M  END
> <VConfSearch Rank>
718

> <Conf_Id>
65

> <Delta U+W>
2.949

> <U+W>
-8.829

> <U>
49.435

> <W>
-58.263

> <W(PB)>
-60.125

> <W(SA)>
1.862

> <Valence>
3.797

> <Coulomb>
45.253

> <VdW>
0.384

> <VdW6>
-5.596

> <VdW12>
5.980

> <Bond>
0.198

> <Angle>
1.369

> <Pdih>
2.230

> <Idih>
0.000

> <Tether>
0.000

$$$$
VeraChem MOL file


 20 19  0  0  0  0  0  0  0  0999 V2000     
   18.3186   19.9765   22.1062 N   0  3  0  0  0  0  0  0  0  0  0  0
   17.4074   19.6412   21.7761 H   0  0  0  0  0  0  0  0  0  0  0  0
   18.5370   19.4690   22.9691 H   0  0  0  0  0  0  0  0  0  0  0  0
   18.2006   20.9638   22.3545 H   0  0  0  0  0  0  0  0  0  0  0  0
   19.4017   19.7845   21.0625 C   0  0  0  0  0  0  0  0  0  0  0  0
   19.0990   20.3538   20.1795 H   0  0  0  0  0  0  0  0  0  0  0  0
   19.4403   18.7271   20.7874 H   0  0  0  0  0  0  0  0  0  0  0  0
   20.7979   20.2597   21.5135 C   0  0  0  0  0  0  0  0  0  0  0  0
   21.3858   20.4718   20.6107 H   0  0  0  0  0  0  0  0  0  0  0  0
   20.7111   21.2169   22.0446 H   0  0  0  0  0  0  0  0  0  0  0  0
   21.5977   19.2423   22.3709 C   0  0  0  0  0  0  0  0  0  0  0  0
   22.5830   19.6856   22.5718 H   0  0  0  0  0  0  0  0  0  0  0  0
   21.7987   18.3349   21.7846 H   0  0  0  0  0  0  0  0  0  0  0  0
   20.9551   18.8658   23.7302 C   0  0  0  0  0  0  0  0  0  0  0  0
   21.7567   18.7230   24.4686 H   0  0  0  0  0  0  0  0  0  0  0  0
   20.3475   19.6975   24.1117 H   0  0  0  0  0  0  0  0  0  0  0  0
   20.1293   17.5588   23.6707 C   0  0  0  0  0  0  0  0  0  0  0  0
   19.3479   17.5907   22.9039 H   0  0  0  0  0  0  0  0  0  0  0  0
   20.7779   16.7026   23.4433 H   0  0  0  0  0  0  0  0  0  0  0  0
   19.6483   17.3607   24.6374 H   0  0  0  0  0  0  0  0  0  0  0  0
  1  2  1  0  0  0  0
  1  3  1  0  0  0  0
  1  4  1  0  0  0  0
  1  5  1  0  0  0  0
  5  6  1  0  0  0  0
  5  7  1  0  0  0  0
  5  8  1  0  0  0  0
  8  9  1  0  0  0  0
  8 10  1  0  0  0  0
  8 11  1  0  0  0  0
 11 12  1  0  0  0  0
 11 13  1  0  0  0  0
 11 14  1  0  0  0  0
 14 15  1  0  0  0  0
 14 16  1  0  0  0  0
 14 17  1  0  0  0  0
 17 18  1  0  0  0  0
 17 19  1  0  0  0  0
 17 20  1  0  0  0  0
M  END
> <VConfSearch Rank>
719

> <Conf_Id>
77

> <Delta U+W>
5.366

> <U+W>
-6.412

> <U>
51.542

> <W>
-57.954

> <W(PB)>
-59.811

> <W(SA)>
1.857

> <Valence>
5.347

> <Coulomb>
45.870

> <VdW>
0.325

> <VdW6>
-6.161

> <VdW12>
6.486

> <Bond>
0.201

> <Angle>
1.484

> <Pdih>
3.662

> <Idih>
0.000

> <Tether>
0.000

$$$$
VeraChem MOL file


 20 19  0  0  0  0  0  0  0  0999 V2000     
   21.9481   19.0198   21.5308 N   0  3  0  0  0  0  0  0  0  0  0  0
   22.7668   19.0932   22.1428 H   0  0  0  0  0  0  0  0  0  0  0  0
   21.4591   18.1541   21.7780 H   0  0  0  0  0  0  0  0  0  0  0  0
   22.3000   18.9101   20.5738 H   0  0  0  0  0  0  0  0  0  0  0  0
   21.0379   20.2257   21.6618 C   0  0  0  0  0  0  0  0  0  0  0  0
   20.2197   20.1273   20.9434 H   0  0  0  0  0  0  0  0  0  0  0  0
   21.6286   21.1032   21.3850 H   0  0  0  0  0  0  0  0  0  0  0  0
   20.4681   20.4295   23.0803 C   0  0  0  0  0  0  0  0  0  0  0  0
   21.2545   20.2519   23.8259 H   0  0  0  0  0  0  0  0  0  0  0  0
   20.1951   21.4883   23.1812 H   0  0  0  0  0  0  0  0  0  0  0  0
   19.2111   19.5827   23.4159 C   0  0  0  0  0  0  0  0  0  0  0  0
   18.3826   19.8623   22.7504 H   0  0  0  0  0  0  0  0  0  0  0  0
   18.8842   19.8667   24.4259 H   0  0  0  0  0  0  0  0  0  0  0  0
   19.4167   18.0466   23.3927 C   0  0  0  0  0  0  0  0  0  0  0  0
   20.4546   17.7938   23.6480 H   0  0  0  0  0  0  0  0  0  0  0  0
   18.8005   17.5990   24.1854 H   0  0  0  0  0  0  0  0  0  0  0  0
   19.0031   17.3983   22.0501 C   0  0  0  0  0  0  0  0  0  0  0  0
   19.2169   16.3216   22.0583 H   0  0  0  0  0  0  0  0  0  0  0  0
   17.9255   17.5194   21.8789 H   0  0  0  0  0  0  0  0  0  0  0  0
   19.5228   17.8402   21.1932 H   0  0  0  0  0  0  0  0  0  0  0  0
  1  2  1  0  0  0  0
  1  3  1  0  0  0  0
  1  4  1  0  0  0  0
  1  5  1  0  0  0  0
  5  6  1  0  0  0  0
  5  7  1  0  0  0  0
  5  8  1  0  0  0  0
  8  9  1  0  0  0  0
  8 10  1  0  0  0  0
  8 11  1  0  0  0  0
 11 12  1  0  0  0  0
 11 13  1  0  0  0  0
 11 14  1  0  0  0  0
 14 15  1  0  0  0  0
 14 16  1  0  0  0  0
 14 17  1  0  0  0  0
 17 18  1  0  0  0  0
 17 19  1  0  0  0  0
 17 20  1  0  0  0  0
M  END
> <VConfSearch Rank>
720

> <Conf_Id>
67

> <Delta U+W>
5.353

> <U+W>
-6.425

> <U>
51.541

> <W>
-57.966

> <W(PB)>
-59.821

> <W(SA)>
1.855

> <Valence>
5.347

> <Coulomb>
45.870

> <VdW>
0.325

> <VdW6>
-6.161

> <VdW12>
6.486

> <Bond>
0.201

> <Angle>
1.485

> <Pdih>
3.662

> <Idih>
0.000

> <Tether>
0.000

$$$$
VeraChem MOL file


 20 19  0  0  0  0  0  0  0  0999 V2000     
   21.7603   21.7294   21.4751 N   0  3  0  0  0  0  0  0  0  0  0  0
   21.8302   22.2064   22.3795 H   0  0  0  0  0  0  0  0  0  0  0  0
   22.6273   21.9302   20.9655 H   0  0  0  0  0  0  0  0  0  0  0  0
   20.9997   22.1786   20.9555 H   0  0  0  0  0  0  0  0  0  0  0  0
   21.5341   20.2396   21.6362 C   0  0  0  0  0  0  0  0  0  0  0  0
   22.3932   19.8234   22.1692 H   0  0  0  0  0  0  0  0  0  0  0  0
   21.5002   19.7936   20.6385 H   0  0  0  0  0  0  0  0  0  0  0  0
   20.2395   19.9033   22.3980 C   0  0  0  0  0  0  0  0  0  0  0  0
   20.2709   20.3665   23.3932 H   0  0  0  0  0  0  0  0  0  0  0  0
   19.3810   20.3367   21.8677 H   0  0  0  0  0  0  0  0  0  0  0  0
   20.0468   18.3771   22.5402 C   0  0  0  0  0  0  0  0  0  0  0  0
   20.9099   17.9460   23.0664 H   0  0  0  0  0  0  0  0  0  0  0  0
   20.0210   17.9163   21.5428 H   0  0  0  0  0  0  0  0  0  0  0  0
   18.7498   18.0274   23.3038 C   0  0  0  0  0  0  0  0  0  0  0  0
   18.7723   18.4848   24.3030 H   0  0  0  0  0  0  0  0  0  0  0  0
   17.8835   18.4549   22.7795 H   0  0  0  0  0  0  0  0  0  0  0  0
   18.5614   16.5017   23.4435 C   0  0  0  0  0  0  0  0  0  0  0  0
   19.3963   16.0494   23.9946 H   0  0  0  0  0  0  0  0  0  0  0  0
   17.6360   16.2735   23.9880 H   0  0  0  0  0  0  0  0  0  0  0  0
   18.5004   16.0193   22.4592 H   0  0  0  0  0  0  0  0  0  0  0  0
  1  2  1  0  0  0  0
  1  3  1  0  0  0  0
  1  4  1  0  0  0  0
  1  5  1  0  0  0  0
  5  6  1  0  0  0  0
  5  7  1  0  0  0  0
  5  8  1  0  0  0  0
  8  9  1  0  0  0  0
  8 10  1  0  0  0  0
  8 11  1  0  0  0  0
 11 12  1  0  0  0  0
 11 13  1  0  0  0  0
 11 14  1  0  0  0  0
 14 15  1  0  0  0  0
 14 16  1  0  0  0  0
 14 17  1  0  0  0  0
 17 18  1  0  0  0  0
 17 19  1  0  0  0  0
 17 20  1  0  0  0  0
M  END
> <VConfSearch Rank>
721

> <Conf_Id>
72

> <Delta U+W>
0.000

> <U+W>
-11.778

> <U>
45.772

> <W>
-57.550

> <W(PB)>
-59.511

> <W(SA)>
1.961

> <Valence>
1.299

> <Coulomb>
44.177

> <VdW>
0.297

> <VdW6>
-3.490

> <VdW12>
3.786

> <Bond>
0.096

> <Angle>
0.381

> <Pdih>
0.822

> <Idih>
0.000

> <Tether>
0.000

$$$$
VeraChem MOL file


 20 19  0  0  0  0  0  0  0  0999 V2000     
   17.9657   21.1011   23.3615 N   0  3  0  0  0  0  0  0  0  0  0  0
   17.2412   20.3850   23.2495 H   0  0  0  0  0  0  0  0  0  0  0  0
   18.2100   21.1295   24.3564 H   0  0  0  0  0  0  0  0  0  0  0  0
   17.5305   22.0020   23.1366 H   0  0  0  0  0  0  0  0  0  0  0  0
   19.1740   20.8261   22.4891 C   0  0  0  0  0  0  0  0  0  0  0  0
   19.8883   21.6408   22.6357 H   0  0  0  0  0  0  0  0  0  0  0  0
   18.8472   20.8398   21.4458 H   0  0  0  0  0  0  0  0  0  0  0  0
   19.8524   19.4802   22.8015 C   0  0  0  0  0  0  0  0  0  0  0  0
   20.1646   19.4646   23.8541 H   0  0  0  0  0  0  0  0  0  0  0  0
   19.1220   18.6722   22.6683 H   0  0  0  0  0  0  0  0  0  0  0  0
   21.0800   19.2426   21.8906 C   0  0  0  0  0  0  0  0  0  0  0  0
   21.7631   20.0987   21.9805 H   0  0  0  0  0  0  0  0  0  0  0  0
   20.7606   19.2120   20.8395 H   0  0  0  0  0  0  0  0  0  0  0  0
   21.8618   17.9508   22.2318 C   0  0  0  0  0  0  0  0  0  0  0  0
   22.7692   17.9139   21.6128 H   0  0  0  0  0  0  0  0  0  0  0  0
   22.2038   17.9878   23.2756 H   0  0  0  0  0  0  0  0  0  0  0  0
   21.0464   16.6586   21.9975 C   0  0  0  0  0  0  0  0  0  0  0  0
   20.6687   16.6108   20.9679 H   0  0  0  0  0  0  0  0  0  0  0  0
   21.6731   15.7732   22.1659 H   0  0  0  0  0  0  0  0  0  0  0  0
   20.1913   16.5913   22.6813 H   0  0  0  0  0  0  0  0  0  0  0  0
  1  2  1  0  0  0  0
  1  3  1  0  0  0  0
  1  4  1  0  0  0  0
  1  5  1  0  0  0  0
  5  6  1  0  0  0  0
  5  7  1  0  0  0  0
  5  8  1  0  0  0  0
  8  9  1  0  0  0  0
  8 10  1  0  0  0  0
  8 11  1  0  0  0  0
 11 12  1  0  0  0  0
 11 13  1  0  0  0  0
 11 14  1  0  0  0  0
 14 15  1  0  0  0  0
 14 16  1  0  0  0  0
 14 17  1  0  0  0  0
 17 18  1  0  0  0  0
 17 19  1  0  0  0  0
 17 20  1  0  0  0  0
M  END
> <VConfSearch Rank>
722

> <Conf_Id>
42

> <Delta U+W>
0.508

> <U+W>
-11.270

> <U>
46.486

> <W>
-57.756

> <W(PB)>
-59.705

> <W(SA)>
1.949

> <Valence>
1.806

> <Coulomb>
44.248

> <VdW>
0.433

> <VdW6>
-4.089

> <VdW12>
4.522

> <Bond>
0.131

> <Angle>
0.628

> <Pdih>
1.047

> <Idih>
0.000

> <Tether>
0.000

$$$$
VeraChem MOL file


 20 19  0  0  0  0  0  0  0  0999 V2000     
   18.5923   21.6181   22.6066 N   0  3  0  0  0  0  0  0  0  0  0  0
   19.2953   22.2279   22.1772 H   0  0  0  0  0  0  0  0  0  0  0  0
   17.9694   21.3019   21.8567 H   0  0  0  0  0  0  0  0  0  0  0  0
   18.0306   22.2061   23.2314 H   0  0  0  0  0  0  0  0  0  0  0  0
   19.2254   20.4561   23.3452 C   0  0  0  0  0  0  0  0  0  0  0  0
   18.4236   19.8684   23.8005 H   0  0  0  0  0  0  0  0  0  0  0  0
   19.8485   20.8644   24.1455 H   0  0  0  0  0  0  0  0  0  0  0  0
   20.0770   19.5525   22.4356 C   0  0  0  0  0  0  0  0  0  0  0  0
   19.4461   19.1629   21.6267 H   0  0  0  0  0  0  0  0  0  0  0  0
   20.8710   20.1499   21.9682 H   0  0  0  0  0  0  0  0  0  0  0  0
   20.7045   18.3831   23.2305 C   0  0  0  0  0  0  0  0  0  0  0  0
   19.9090   17.7585   23.6600 H   0  0  0  0  0  0  0  0  0  0  0  0
   21.2693   18.7908   24.0805 H   0  0  0  0  0  0  0  0  0  0  0  0
   21.6554   17.5012   22.3850 C   0  0  0  0  0  0  0  0  0  0  0  0
   22.4664   18.1179   21.9729 H   0  0  0  0  0  0  0  0  0  0  0  0
   22.1349   16.7656   23.0460 H   0  0  0  0  0  0  0  0  0  0  0  0
   20.9404   16.7494   21.2391 C   0  0  0  0  0  0  0  0  0  0  0  0
   20.5468   17.4426   20.4854 H   0  0  0  0  0  0  0  0  0  0  0  0
   21.6380   16.0715   20.7305 H   0  0  0  0  0  0  0  0  0  0  0  0
   20.1064   16.1468   21.6217 H   0  0  0  0  0  0  0  0  0  0  0  0
  1  2  1  0  0  0  0
  1  3  1  0  0  0  0
  1  4  1  0  0  0  0
  1  5  1  0  0  0  0
  5  6  1  0  0  0  0
  5  7  1  0  0  0  0
  5  8  1  0  0  0  0
  8  9  1  0  0  0  0
  8 10  1  0  0  0  0
  8 11  1  0  0  0  0
 11 12  1  0  0  0  0
 11 13  1  0  0  0  0
 11 14  1  0  0  0  0
 14 15  1  0  0  0  0
 14 16  1  0  0  0  0
 14 17  1  0  0  0  0
 17 18  1  0  0  0  0
 17 19  1  0  0  0  0
 17 20  1  0  0  0  0
M  END
> <VConfSearch Rank>
723

> <Conf_Id>
41

> <Delta U+W>
0.515

> <U+W>
-11.263

> <U>
46.486

> <W>
-57.749

> <W(PB)>
-59.685

> <W(SA)>
1.936

> <Valence>
1.806

> <Coulomb>
44.248

> <VdW>
0.433

> <VdW6>
-4.089

> <VdW12>
4.522

> <Bond>
0.131

> <Angle>
0.628

> <Pdih>
1.047

> <Idih>
0.000

> <Tether>
0.000

$$$$
VeraChem MOL file


 20 19  0  0  0  0  0  0  0  0999 V2000     
   18.9370   20.9848   20.8084 N   0  3  0  0  0  0  0  0  0  0  0  0
   18.9168   21.8948   20.3361 H   0  0  0  0  0  0  0  0  0  0  0  0
   19.3258   20.3116   20.1417 H   0  0  0  0  0  0  0  0  0  0  0  0
   17.9628   20.7156   20.9775 H   0  0  0  0  0  0  0  0  0  0  0  0
   19.7403   21.0358   22.0938 C   0  0  0  0  0  0  0  0  0  0  0  0
   19.2935   21.8028   22.7324 H   0  0  0  0  0  0  0  0  0  0  0  0
   20.7579   21.3502   21.8466 H   0  0  0  0  0  0  0  0  0  0  0  0
   19.7820   19.6979   22.8580 C   0  0  0  0  0  0  0  0  0  0  0  0
   20.2811   19.8726   23.8192 H   0  0  0  0  0  0  0  0  0  0  0  0
   18.7580   19.3760   23.0895 H   0  0  0  0  0  0  0  0  0  0  0  0
   20.5254   18.5852   22.0766 C   0  0  0  0  0  0  0  0  0  0  0  0
   21.5559   18.9049   21.8685 H   0  0  0  0  0  0  0  0  0  0  0  0
   20.0439   18.4400   21.1005 H   0  0  0  0  0  0  0  0  0  0  0  0
   20.5456   17.2233   22.8126 C   0  0  0  0  0  0  0  0  0  0  0  0
   19.5165   16.8924   23.0110 H   0  0  0  0  0  0  0  0  0  0  0  0
   20.9868   16.4693   22.1457 H   0  0  0  0  0  0  0  0  0  0  0  0
   21.3479   17.2479   24.1337 C   0  0  0  0  0  0  0  0  0  0  0  0
   20.8744   17.8951   24.8822 H   0  0  0  0  0  0  0  0  0  0  0  0
   21.4108   16.2398   24.5634 H   0  0  0  0  0  0  0  0  0  0  0  0
   22.3723   17.6056   23.9674 H   0  0  0  0  0  0  0  0  0  0  0  0
  1  2  1  0  0  0  0
  1  3  1  0  0  0  0
  1  4  1  0  0  0  0
  1  5  1  0  0  0  0
  5  6  1  0  0  0  0
  5  7  1  0  0  0  0
  5  8  1  0  0  0  0
  8  9  1  0  0  0  0
  8 10  1  0  0  0  0
  8 11  1  0  0  0  0
 11 12  1  0  0  0  0
 11 13  1  0  0  0  0
 11 14  1  0  0  0  0
 14 15  1  0  0  0  0
 14 16  1  0  0  0  0
 14 17  1  0  0  0  0
 17 18  1  0  0  0  0
 17 19  1  0  0  0  0
 17 20  1  0  0  0  0
M  END
> <VConfSearch Rank>
724

> <Conf_Id>
33

> <Delta U+W>
0.703

> <U+W>
-11.075

> <U>
47.080

> <W>
-58.154

> <W(PB)>
-60.053

> <W(SA)>
1.899

> <Valence>
1.943

> <Coulomb>
44.572

> <VdW>
0.565

> <VdW6>
-4.575

> <VdW12>
5.139

> <Bond>
0.158

> <Angle>
0.700

> <Pdih>
1.085

> <Idih>
0.000

> <Tether>
0.000

$$$$
VeraChem MOL file


 20 19  0  0  0  0  0  0  0  0999 V2000     
   22.3158   19.0182   20.7485 N   0  3  0  0  0  0  0  0  0  0  0  0
   22.8566   18.5642   20.0049 H   0  0  0  0  0  0  0  0  0  0  0  0
   22.4849   20.0256   20.6670 H   0  0  0  0  0  0  0  0  0  0  0  0
   22.7202   18.7143   21.6390 H   0  0  0  0  0  0  0  0  0  0  0  0
   20.8394   18.6839   20.6547 C   0  0  0  0  0  0  0  0  0  0  0  0
   20.7315   17.5981   20.7250 H   0  0  0  0  0  0  0  0  0  0  0  0
   20.4920   18.9965   19.6662 H   0  0  0  0  0  0  0  0  0  0  0  0
   19.9754   19.3620   21.7361 C   0  0  0  0  0  0  0  0  0  0  0  0
   20.0993   20.4513   21.6744 H   0  0  0  0  0  0  0  0  0  0  0  0
   18.9228   19.1523   21.5088 H   0  0  0  0  0  0  0  0  0  0  0  0
   20.3106   18.8688   23.1663 C   0  0  0  0  0  0  0  0  0  0  0  0
   21.3736   19.0479   23.3750 H   0  0  0  0  0  0  0  0  0  0  0  0
   20.1626   17.7817   23.2267 H   0  0  0  0  0  0  0  0  0  0  0  0
   19.4777   19.5657   24.2698 C   0  0  0  0  0  0  0  0  0  0  0  0
   19.8548   19.2448   25.2510 H   0  0  0  0  0  0  0  0  0  0  0  0
   19.6329   20.6527   24.2223 H   0  0  0  0  0  0  0  0  0  0  0  0
   17.9659   19.2523   24.1921 C   0  0  0  0  0  0  0  0  0  0  0  0
   17.7855   18.1695   24.2060 H   0  0  0  0  0  0  0  0  0  0  0  0
   17.4385   19.6907   25.0492 H   0  0  0  0  0  0  0  0  0  0  0  0
   17.5137   19.6651   23.2820 H   0  0  0  0  0  0  0  0  0  0  0  0
  1  2  1  0  0  0  0
  1  3  1  0  0  0  0
  1  4  1  0  0  0  0
  1  5  1  0  0  0  0
  5  6  1  0  0  0  0
  5  7  1  0  0  0  0
  5  8  1  0  0  0  0
  8  9  1  0  0  0  0
  8 10  1  0  0  0  0
  8 11  1  0  0  0  0
 11 12  1  0  0  0  0
 11 13  1  0  0  0  0
 11 14  1  0  0  0  0
 14 15  1  0  0  0  0
 14 16  1  0  0  0  0
 14 17  1  0  0  0  0
 17 18  1  0  0  0  0
 17 19  1  0  0  0  0
 17 20  1  0  0  0  0
M  END
> <VConfSearch Rank>
725

> <Conf_Id>
24

> <Delta U+W>
0.847

> <U+W>
-10.931

> <U>
47.080

> <W>
-58.011

> <W(PB)>
-59.914

> <W(SA)>
1.903

> <Valence>
1.943

> <Coulomb>
44.572

> <VdW>
0.565

> <VdW6>
-4.575

> <VdW12>
5.140

> <Bond>
0.158

> <Angle>
0.700

> <Pdih>
1.085

> <Idih>
0.000

> <Tether>
0.000

$$$$
VeraChem MOL file


 20 19  0  0  0  0  0  0  0  0999 V2000     
   22.7380   19.3348   23.3510 N   0  3  0  0  0  0  0  0  0  0  0  0
   23.4887   19.9191   22.9683 H   0  0  0  0  0  0  0  0  0  0  0  0
   22.4520   19.7613   24.2379 H   0  0  0  0  0  0  0  0  0  0  0  0
   23.1544   18.4254   23.5747 H   0  0  0  0  0  0  0  0  0  0  0  0
   21.5779   19.2041   22.3850 C   0  0  0  0  0  0  0  0  0  0  0  0
   21.9588   18.7716   21.4558 H   0  0  0  0  0  0  0  0  0  0  0  0
   21.2056   20.2090   22.1694 H   0  0  0  0  0  0  0  0  0  0  0  0
   20.4314   18.3319   22.9304 C   0  0  0  0  0  0  0  0  0  0  0  0
   20.8250   17.3382   23.1825 H   0  0  0  0  0  0  0  0  0  0  0  0
   20.0544   18.7601   23.8679 H   0  0  0  0  0  0  0  0  0  0  0  0
   19.2701   18.1669   21.9184 C   0  0  0  0  0  0  0  0  0  0  0  0
   18.4964   17.5273   22.3651 H   0  0  0  0  0  0  0  0  0  0  0  0
   19.6393   17.6237   21.0374 H   0  0  0  0  0  0  0  0  0  0  0  0
   18.6215   19.4947   21.4499 C   0  0  0  0  0  0  0  0  0  0  0  0
   19.3556   20.1046   20.9058 H   0  0  0  0  0  0  0  0  0  0  0  0
   17.8288   19.2608   20.7255 H   0  0  0  0  0  0  0  0  0  0  0  0
   18.0122   20.3220   22.6045 C   0  0  0  0  0  0  0  0  0  0  0  0
   17.4863   21.2017   22.2114 H   0  0  0  0  0  0  0  0  0  0  0  0
   17.2891   19.7274   23.1777 H   0  0  0  0  0  0  0  0  0  0  0  0
   18.7858   20.6816   23.2943 H   0  0  0  0  0  0  0  0  0  0  0  0
  1  2  1  0  0  0  0
  1  3  1  0  0  0  0
  1  4  1  0  0  0  0
  1  5  1  0  0  0  0
  5  6  1  0  0  0  0
  5  7  1  0  0  0  0
  5  8  1  0  0  0  0
  8  9  1  0  0  0  0
  8 10  1  0  0  0  0
  8 11  1  0  0  0  0
 11 12  1  0  0  0  0
 11 13  1  0  0  0  0
 11 14  1  0  0  0  0
 14 15  1  0  0  0  0
 14 16  1  0  0  0  0
 14 17  1  0  0  0  0
 17 18  1  0  0  0  0
 17 19  1  0  0  0  0
 17 20  1  0  0  0  0
M  END
> <VConfSearch Rank>
726

> <Conf_Id>
64

> <Delta U+W>
0.707

> <U+W>
-11.070

> <U>
47.077

> <W>
-58.148

> <W(PB)>
-60.054

> <W(SA)>
1.906

> <Valence>
2.039

> <Coulomb>
44.655

> <VdW>
0.383

> <VdW6>
-4.912

> <VdW12>
5.295

> <Bond>
0.159

> <Angle>
0.856

> <Pdih>
1.024

> <Idih>
0.000

> <Tether>
0.000

$$$$
VeraChem MOL file


 20 19  0  0  0  0  0  0  0  0999 V2000     
   21.9826   18.0867   20.6436 N   0  3  0  0  0  0  0  0  0  0  0  0
   22.4686   17.2327   20.9348 H   0  0  0  0  0  0  0  0  0  0  0  0
   21.2207   17.8021   20.0202 H   0  0  0  0  0  0  0  0  0  0  0  0
   22.6448   18.6268   20.0768 H   0  0  0  0  0  0  0  0  0  0  0  0
   21.4768   18.8827   21.8298 C   0  0  0  0  0  0  0  0  0  0  0  0
   20.9997   19.7888   21.4473 H   0  0  0  0  0  0  0  0  0  0  0  0
   22.3402   19.1767   22.4326 H   0  0  0  0  0  0  0  0  0  0  0  0
   20.4783   18.0994   22.7028 C   0  0  0  0  0  0  0  0  0  0  0  0
   19.6154   17.7958   22.0964 H   0  0  0  0  0  0  0  0  0  0  0  0
   20.9537   17.1715   23.0474 H   0  0  0  0  0  0  0  0  0  0  0  0
   20.0014   18.9045   23.9374 C   0  0  0  0  0  0  0  0  0  0  0  0
   20.8614   19.0906   24.5956 H   0  0  0  0  0  0  0  0  0  0  0  0
   19.3046   18.2853   24.5190 H   0  0  0  0  0  0  0  0  0  0  0  0
   19.3227   20.2590   23.6088 C   0  0  0  0  0  0  0  0  0  0  0  0
   19.0440   20.7490   24.5522 H   0  0  0  0  0  0  0  0  0  0  0  0
   20.0386   20.9334   23.1195 H   0  0  0  0  0  0  0  0  0  0  0  0
   18.0592   20.1160   22.7301 C   0  0  0  0  0  0  0  0  0  0  0  0
   17.3354   19.4295   23.1880 H   0  0  0  0  0  0  0  0  0  0  0  0
   17.5661   21.0886   22.6047 H   0  0  0  0  0  0  0  0  0  0  0  0
   18.3051   19.7397   21.7293 H   0  0  0  0  0  0  0  0  0  0  0  0
  1  2  1  0  0  0  0
  1  3  1  0  0  0  0
  1  4  1  0  0  0  0
  1  5  1  0  0  0  0
  5  6  1  0  0  0  0
  5  7  1  0  0  0  0
  5  8  1  0  0  0  0
  8  9  1  0  0  0  0
  8 10  1  0  0  0  0
  8 11  1  0  0  0  0
 11 12  1  0  0  0  0
 11 13  1  0  0  0  0
 11 14  1  0  0  0  0
 14 15  1  0  0  0  0
 14 16  1  0  0  0  0
 14 17  1  0  0  0  0
 17 18  1  0  0  0  0
 17 19  1  0  0  0  0
 17 20  1  0  0  0  0
M  END
> <VConfSearch Rank>
727

> <Conf_Id>
22

> <Delta U+W>
0.731

> <U+W>
-11.047

> <U>
47.078

> <W>
-58.125

> <W(PB)>
-60.031

> <W(SA)>
1.906

> <Valence>
2.039

> <Coulomb>
44.655

> <VdW>
0.383

> <VdW6>
-4.913

> <VdW12>
5.296

> <Bond>
0.159

> <Angle>
0.856

> <Pdih>
1.024

> <Idih>
0.000

> <Tether>
0.000

$$$$
VeraChem MOL file


 20 19  0  0  0  0  0  0  0  0999 V2000     
   19.0797   21.6377   23.1664 N   0  3  0  0  0  0  0  0  0  0  0  0
   19.0977   21.6039   24.1905 H   0  0  0  0  0  0  0  0  0  0  0  0
   19.6643   22.4296   22.8810 H   0  0  0  0  0  0  0  0  0  0  0  0
   18.1178   21.8650   22.8932 H   0  0  0  0  0  0  0  0  0  0  0  0
   19.5483   20.3358   22.5483 C   0  0  0  0  0  0  0  0  0  0  0  0
   19.4776   20.4325   21.4615 H   0  0  0  0  0  0  0  0  0  0  0  0
   18.8633   19.5493   22.8728 H   0  0  0  0  0  0  0  0  0  0  0  0
   20.9882   19.9631   22.9438 C   0  0  0  0  0  0  0  0  0  0  0  0
   21.6469   20.8129   22.7204 H   0  0  0  0  0  0  0  0  0  0  0  0
   21.0404   19.8077   24.0296 H   0  0  0  0  0  0  0  0  0  0  0  0
   21.5368   18.7118   22.2123 C   0  0  0  0  0  0  0  0  0  0  0  0
   22.5909   18.5969   22.5009 H   0  0  0  0  0  0  0  0  0  0  0  0
   21.5434   18.8802   21.1265 H   0  0  0  0  0  0  0  0  0  0  0  0
   20.8023   17.3869   22.5441 C   0  0  0  0  0  0  0  0  0  0  0  0
   21.5143   16.5583   22.4228 H   0  0  0  0  0  0  0  0  0  0  0  0
   20.5004   17.3725   23.6007 H   0  0  0  0  0  0  0  0  0  0  0  0
   19.5846   17.1002   21.6343 C   0  0  0  0  0  0  0  0  0  0  0  0
   18.7851   17.8367   21.7652 H   0  0  0  0  0  0  0  0  0  0  0  0
   19.8757   17.0978   20.5759 H   0  0  0  0  0  0  0  0  0  0  0  0
   19.1609   16.1138   21.8636 H   0  0  0  0  0  0  0  0  0  0  0  0
  1  2  1  0  0  0  0
  1  3  1  0  0  0  0
  1  4  1  0  0  0  0
  1  5  1  0  0  0  0
  5  6  1  0  0  0  0
  5  7  1  0  0  0  0
  5  8  1  0  0  0  0
  8  9  1  0  0  0  0
  8 10  1  0  0  0  0
  8 11  1  0  0  0  0
 11 12  1  0  0  0  0
 11 13  1  0  0  0  0
 11 14  1  0  0  0  0
 14 15  1  0  0  0  0
 14 16  1  0  0  0  0
 14 17  1  0  0  0  0
 17 18  1  0  0  0  0
 17 19  1  0  0  0  0
 17 20  1  0  0  0  0
M  END
> <VConfSearch Rank>
728

> <Conf_Id>
61

> <Delta U+W>
2.669

> <U+W>
-9.108

> <U>
48.916

> <W>
-58.025

> <W(PB)>
-59.935

> <W(SA)>
1.911

> <Valence>
3.785

> <Coulomb>
44.716

> <VdW>
0.415

> <VdW6>
-4.836

> <VdW12>
5.251

> <Bond>
0.175

> <Angle>
1.195

> <Pdih>
2.415

> <Idih>
0.000

> <Tether>
0.000

$$$$
VeraChem MOL file


 20 19  0  0  0  0  0  0  0  0999 V2000     
   18.4115   20.4206   21.7853 N   0  3  0  0  0  0  0  0  0  0  0  0
   17.5713   20.9151   22.1034 H   0  0  0  0  0  0  0  0  0  0  0  0
   18.4592   20.5409   20.7686 H   0  0  0  0  0  0  0  0  0  0  0  0
   18.2600   19.4247   21.9648 H   0  0  0  0  0  0  0  0  0  0  0  0
   19.6612   20.9372   22.4722 C   0  0  0  0  0  0  0  0  0  0  0  0
   19.5314   20.8376   23.5532 H   0  0  0  0  0  0  0  0  0  0  0  0
   19.7356   22.0025   22.2376 H   0  0  0  0  0  0  0  0  0  0  0  0
   20.9642   20.2359   22.0341 C   0  0  0  0  0  0  0  0  0  0  0  0
   20.9676   20.0938   20.9453 H   0  0  0  0  0  0  0  0  0  0  0  0
   21.7984   20.9162   22.2511 H   0  0  0  0  0  0  0  0  0  0  0  0
   21.2475   18.8930   22.7553 C   0  0  0  0  0  0  0  0  0  0  0  0
   21.2986   19.0634   23.8397 H   0  0  0  0  0  0  0  0  0  0  0  0
   22.2458   18.5470   22.4535 H   0  0  0  0  0  0  0  0  0  0  0  0
   20.2206   17.7755   22.4568 C   0  0  0  0  0  0  0  0  0  0  0  0
   19.2451   18.0367   22.8857 H   0  0  0  0  0  0  0  0  0  0  0  0
   20.0845   17.6732   21.3710 H   0  0  0  0  0  0  0  0  0  0  0  0
   20.6687   16.4201   23.0444 C   0  0  0  0  0  0  0  0  0  0  0  0
   19.9253   15.6407   22.8324 H   0  0  0  0  0  0  0  0  0  0  0  0
   21.6252   16.0983   22.6124 H   0  0  0  0  0  0  0  0  0  0  0  0
   20.7895   16.4827   24.1338 H   0  0  0  0  0  0  0  0  0  0  0  0
  1  2  1  0  0  0  0
  1  3  1  0  0  0  0
  1  4  1  0  0  0  0
  1  5  1  0  0  0  0
  5  6  1  0  0  0  0
  5  7  1  0  0  0  0
  5  8  1  0  0  0  0
  8  9  1  0  0  0  0
  8 10  1  0  0  0  0
  8 11  1  0  0  0  0
 11 12  1  0  0  0  0
 11 13  1  0  0  0  0
 11 14  1  0  0  0  0
 14 15  1  0  0  0  0
 14 16  1  0  0  0  0
 14 17  1  0  0  0  0
 17 18  1  0  0  0  0
 17 19  1  0  0  0  0
 17 20  1  0  0  0  0
M  END
> <VConfSearch Rank>
729

> <Conf_Id>
69

> <Delta U+W>
2.811

> <U+W>
-8.967

> <U>
49.216

> <W>
-58.183

> <W(PB)>
-60.064

> <W(SA)>
1.881

> <Valence>
2.929

> <Coulomb>
46.006

> <VdW>
0.281

> <VdW6>
-4.909

> <VdW12>
5.190

> <Bond>
0.156

> <Angle>
0.974

> <Pdih>
1.799

> <Idih>
0.000

> <Tether>
0.000

$$$$
VeraChem MOL file


 20 19  0  0  0  0  0  0  0  0999 V2000     
   19.6344   17.9845   24.3400 N   0  3  0  0  0  0  0  0  0  0  0  0
   19.7312   17.5160   23.4354 H   0  0  0  0  0  0  0  0  0  0  0  0
   20.5158   17.8514   24.8455 H   0  0  0  0  0  0  0  0  0  0  0  0
   18.9122   17.4798   24.8647 H   0  0  0  0  0  0  0  0  0  0  0  0
   19.2917   19.4538   24.1840 C   0  0  0  0  0  0  0  0  0  0  0  0
   19.1959   19.8666   25.1919 H   0  0  0  0  0  0  0  0  0  0  0  0
   18.3187   19.5346   23.6920 H   0  0  0  0  0  0  0  0  0  0  0  0
   20.3423   20.2730   23.4052 C   0  0  0  0  0  0  0  0  0  0  0  0
   20.2242   21.3262   23.6928 H   0  0  0  0  0  0  0  0  0  0  0  0
   21.3538   19.9865   23.7222 H   0  0  0  0  0  0  0  0  0  0  0  0
   20.2141   20.1854   21.8625 C   0  0  0  0  0  0  0  0  0  0  0  0
   20.9300   20.8917   21.4196 H   0  0  0  0  0  0  0  0  0  0  0  0
   19.2165   20.5308   21.5578 H   0  0  0  0  0  0  0  0  0  0  0  0
   20.4739   18.7779   21.2762 C   0  0  0  0  0  0  0  0  0  0  0  0
   21.4228   18.3809   21.6635 H   0  0  0  0  0  0  0  0  0  0  0  0
   19.6793   18.0883   21.5875 H   0  0  0  0  0  0  0  0  0  0  0  0
   20.5244   18.8052   19.7336 C   0  0  0  0  0  0  0  0  0  0  0  0
   21.3340   19.4544   19.3755 H   0  0  0  0  0  0  0  0  0  0  0  0
   20.6996   17.7981   19.3334 H   0  0  0  0  0  0  0  0  0  0  0  0
   19.5794   19.1744   19.3142 H   0  0  0  0  0  0  0  0  0  0  0  0
  1  2  1  0  0  0  0
  1  3  1  0  0  0  0
  1  4  1  0  0  0  0
  1  5  1  0  0  0  0
  5  6  1  0  0  0  0
  5  7  1  0  0  0  0
  5  8  1  0  0  0  0
  8  9  1  0  0  0  0
  8 10  1  0  0  0  0
  8 11  1  0  0  0  0
 11 12  1  0  0  0  0
 11 13  1  0  0  0  0
 11 14  1  0  0  0  0
 14 15  1  0  0  0  0
 14 16  1  0  0  0  0
 14 17  1  0  0  0  0
 17 18  1  0  0  0  0
 17 19  1  0  0  0  0
 17 20  1  0  0  0  0
M  END
> <VConfSearch Rank>
730

> <Conf_Id>
26

> <Delta U+W>
2.809

> <U+W>
-8.969

> <U>
49.216

> <W>
-58.185

> <W(PB)>
-60.088

> <W(SA)>
1.903

> <Valence>
2.929

> <Coulomb>
46.006

> <VdW>
0.281

> <VdW6>
-4.909

> <VdW12>
5.190

> <Bond>
0.156

> <Angle>
0.974

> <Pdih>
1.799

> <Idih>
0.000

> <Tether>
0.000

$$$$
VeraChem MOL file


 20 19  0  0  0  0  0  0  0  0999 V2000     
   20.5921   19.0350   24.8344 N   0  3  0  0  0  0  0  0  0  0  0  0
   21.3793   18.5962   24.3480 H   0  0  0  0  0  0  0  0  0  0  0  0
   20.9511   19.8787   25.2920 H   0  0  0  0  0  0  0  0  0  0  0  0
   20.3024   18.3921   25.5788 H   0  0  0  0  0  0  0  0  0  0  0  0
   19.4518   19.3499   23.8860 C   0  0  0  0  0  0  0  0  0  0  0  0
   18.6394   19.7846   24.4747 H   0  0  0  0  0  0  0  0  0  0  0  0
   19.0950   18.4090   23.4590 H   0  0  0  0  0  0  0  0  0  0  0  0
   19.8389   20.3213   22.7525 C   0  0  0  0  0  0  0  0  0  0  0  0
   18.9423   20.5530   22.1635 H   0  0  0  0  0  0  0  0  0  0  0  0
   20.1632   21.2742   23.1912 H   0  0  0  0  0  0  0  0  0  0  0  0
   20.9532   19.7851   21.8156 C   0  0  0  0  0  0  0  0  0  0  0  0
   21.8945   19.7098   22.3764 H   0  0  0  0  0  0  0  0  0  0  0  0
   21.1372   20.5258   21.0252 H   0  0  0  0  0  0  0  0  0  0  0  0
   20.6479   18.4137   21.1606 C   0  0  0  0  0  0  0  0  0  0  0  0
   21.5071   18.1224   20.5402 H   0  0  0  0  0  0  0  0  0  0  0  0
   20.5553   17.6363   21.9311 H   0  0  0  0  0  0  0  0  0  0  0  0
   19.3785   18.4244   20.2790 C   0  0  0  0  0  0  0  0  0  0  0  0
   19.4387   19.2052   19.5097 H   0  0  0  0  0  0  0  0  0  0  0  0
   19.2561   17.4600   19.7693 H   0  0  0  0  0  0  0  0  0  0  0  0
   18.4749   18.5989   20.8762 H   0  0  0  0  0  0  0  0  0  0  0  0
  1  2  1  0  0  0  0
  1  3  1  0  0  0  0
  1  4  1  0  0  0  0
  1  5  1  0  0  0  0
  5  6  1  0  0  0  0
  5  7  1  0  0  0  0
  5  8  1  0  0  0  0
  8  9  1  0  0  0  0
  8 10  1  0  0  0  0
  8 11  1  0  0  0  0
 11 12  1  0  0  0  0
 11 13  1  0  0  0  0
 11 14  1  0  0  0  0
 14 15  1  0  0  0  0
 14 16  1  0  0  0  0
 14 17  1  0  0  0  0
 17 18  1  0  0  0  0
 17 19  1  0  0  0  0
 17 20  1  0  0  0  0
M  END
> <VConfSearch Rank>
731

> <Conf_Id>
2

> <Delta U+W>
0.994

> <U+W>
-10.784

> <U>
47.562

> <W>
-58.346

> <W(PB)>
-60.221

> <W(SA)>
1.875

> <Valence>
2.149

> <Coulomb>
45.034

> <VdW>
0.378

> <VdW6>
-5.599

> <VdW12>
5.977

> <Bond>
0.185

> <Angle>
0.935

> <Pdih>
1.028

> <Idih>
0.000

> <Tether>
0.000

$$$$
VeraChem MOL file


 20 19  0  0  0  0  0  0  0  0999 V2000     
   18.0592   17.9040   22.4924 N   0  3  0  0  0  0  0  0  0  0  0  0
   17.7768   17.4701   23.3767 H   0  0  0  0  0  0  0  0  0  0  0  0
   17.8477   18.9035   22.5647 H   0  0  0  0  0  0  0  0  0  0  0  0
   17.4495   17.5196   21.7632 H   0  0  0  0  0  0  0  0  0  0  0  0
   19.5246   17.6613   22.1880 C   0  0  0  0  0  0  0  0  0  0  0  0
   19.7514   18.1191   21.2216 H   0  0  0  0  0  0  0  0  0  0  0  0
   19.6710   16.5818   22.0944 H   0  0  0  0  0  0  0  0  0  0  0  0
   20.4810   18.2161   23.2631 C   0  0  0  0  0  0  0  0  0  0  0  0
   20.2673   17.7252   24.2218 H   0  0  0  0  0  0  0  0  0  0  0  0
   21.5086   17.9311   23.0036 H   0  0  0  0  0  0  0  0  0  0  0  0
   20.3981   19.7543   23.4476 C   0  0  0  0  0  0  0  0  0  0  0  0
   21.1337   20.0597   24.2045 H   0  0  0  0  0  0  0  0  0  0  0  0
   19.4168   20.0180   23.8643 H   0  0  0  0  0  0  0  0  0  0  0  0
   20.6325   20.5778   22.1553 C   0  0  0  0  0  0  0  0  0  0  0  0
   19.8490   20.3588   21.4173 H   0  0  0  0  0  0  0  0  0  0  0  0
   20.5299   21.6452   22.3962 H   0  0  0  0  0  0  0  0  0  0  0  0
   22.0224   20.3421   21.5218 C   0  0  0  0  0  0  0  0  0  0  0  0
   22.1305   19.3122   21.1595 H   0  0  0  0  0  0  0  0  0  0  0  0
   22.1728   21.0110   20.6646 H   0  0  0  0  0  0  0  0  0  0  0  0
   22.8244   20.5384   22.2452 H   0  0  0  0  0  0  0  0  0  0  0  0
  1  2  1  0  0  0  0
  1  3  1  0  0  0  0
  1  4  1  0  0  0  0
  1  5  1  0  0  0  0
  5  6  1  0  0  0  0
  5  7  1  0  0  0  0
  5  8  1  0  0  0  0
  8  9  1  0  0  0  0
  8 10  1  0  0  0  0
  8 11  1  0  0  0  0
 11 12  1  0  0  0  0
 11 13  1  0  0  0  0
 11 14  1  0  0  0  0
 14 15  1  0  0  0  0
 14 16  1  0  0  0  0
 14 17  1  0  0  0  0
 17 18  1  0  0  0  0
 17 19  1  0  0  0  0
 17 20  1  0  0  0  0
M  END
> <VConfSearch Rank>
732

> <Conf_Id>
1

> <Delta U+W>
1.032

> <U+W>
-10.746

> <U>
47.562

> <W>
-58.308

> <W(PB)>
-60.184

> <W(SA)>
1.877

> <Valence>
2.149

> <Coulomb>
45.035

> <VdW>
0.378

> <VdW6>
-5.599

> <VdW12>
5.978

> <Bond>
0.185

> <Angle>
0.935

> <Pdih>
1.028

> <Idih>
0.000

> <Tether>
0.000

$$$$
VeraChem MOL file


 20 19  0  0  0  0  0  0  0  0999 V2000     
   20.8252   20.1259   24.5080 N   0  3  0  0  0  0  0  0  0  0  0  0
   20.8548   19.5516   25.3562 H   0  0  0  0  0  0  0  0  0  0  0  0
   21.6847   19.9370   23.9843 H   0  0  0  0  0  0  0  0  0  0  0  0
   20.8676   21.1050   24.8095 H   0  0  0  0  0  0  0  0  0  0  0  0
   19.5868   19.8451   23.6791 C   0  0  0  0  0  0  0  0  0  0  0  0
   19.6042   20.5088   22.8132 H   0  0  0  0  0  0  0  0  0  0  0  0
   18.7176   20.1093   24.2875 H   0  0  0  0  0  0  0  0  0  0  0  0
   19.4594   18.3748   23.2267 C   0  0  0  0  0  0  0  0  0  0  0  0
   19.4555   17.7417   24.1239 H   0  0  0  0  0  0  0  0  0  0  0  0
   18.4821   18.2247   22.7491 H   0  0  0  0  0  0  0  0  0  0  0  0
   20.5845   17.8883   22.2739 C   0  0  0  0  0  0  0  0  0  0  0  0
   20.6445   16.7942   22.3554 H   0  0  0  0  0  0  0  0  0  0  0  0
   21.5620   18.2599   22.6073 H   0  0  0  0  0  0  0  0  0  0  0  0
   20.3706   18.2300   20.7768 C   0  0  0  0  0  0  0  0  0  0  0  0
   21.1762   17.7576   20.1973 H   0  0  0  0  0  0  0  0  0  0  0  0
   19.4357   17.7738   20.4223 H   0  0  0  0  0  0  0  0  0  0  0  0
   20.3580   19.7412   20.4572 C   0  0  0  0  0  0  0  0  0  0  0  0
   21.2252   20.2495   20.8980 H   0  0  0  0  0  0  0  0  0  0  0  0
   20.3913   19.9022   19.3719 H   0  0  0  0  0  0  0  0  0  0  0  0
   19.4434   20.2200   20.8263 H   0  0  0  0  0  0  0  0  0  0  0  0
  1  2  1  0  0  0  0
  1  3  1  0  0  0  0
  1  4  1  0  0  0  0
  1  5  1  0  0  0  0
  5  6  1  0  0  0  0
  5  7  1  0  0  0  0
  5  8  1  0  0  0  0
  8  9  1  0  0  0  0
  8 10  1  0  0  0  0
  8 11  1  0  0  0  0
 11 12  1  0  0  0  0
 11 13  1  0  0  0  0
 11 14  1  0  0  0  0
 14 15  1  0  0  0  0
 14 16  1  0  0  0  0
 14 17  1  0  0  0  0
 17 18  1  0  0  0  0
 17 19  1  0  0  0  0
 17 20  1  0  0  0  0
M  END
> <VConfSearch Rank>
733

> <Conf_Id>
80

> <Delta U+W>
2.920

> <U+W>
-8.857

> <U>
49.434

> <W>
-58.292

> <W(PB)>
-60.170

> <W(SA)>
1.879

> <Valence>
3.798

> <Coulomb>
45.253

> <VdW>
0.384

> <VdW6>
-5.595

> <VdW12>
5.979

> <Bond>
0.198

> <Angle>
1.368

> <Pdih>
2.231

> <Idih>
0.000

> <Tether>
0.000

$$$$
VeraChem MOL file


 20 19  0  0  0  0  0  0  0  0999 V2000     
   22.2587   19.0189   21.4041 N   0  3  0  0  0  0  0  0  0  0  0  0
   22.9739   19.7310   21.5817 H   0  0  0  0  0  0  0  0  0  0  0  0
   22.7238   18.2433   20.9209 H   0  0  0  0  0  0  0  0  0  0  0  0
   21.5871   19.4222   20.7446 H   0  0  0  0  0  0  0  0  0  0  0  0
   21.5865   18.5624   22.6845 C   0  0  0  0  0  0  0  0  0  0  0  0
   22.3556   18.1081   23.3151 H   0  0  0  0  0  0  0  0  0  0  0  0
   20.8633   17.7872   22.4266 H   0  0  0  0  0  0  0  0  0  0  0  0
   20.8979   19.7006   23.4675 C   0  0  0  0  0  0  0  0  0  0  0  0
   20.5520   19.3178   24.4367 H   0  0  0  0  0  0  0  0  0  0  0  0
   21.6552   20.4616   23.6982 H   0  0  0  0  0  0  0  0  0  0  0  0
   19.7158   20.3784   22.7235 C   0  0  0  0  0  0  0  0  0  0  0  0
   19.9621   20.5337   21.6652 H   0  0  0  0  0  0  0  0  0  0  0  0
   19.5865   21.3853   23.1442 H   0  0  0  0  0  0  0  0  0  0  0  0
   18.3548   19.6463   22.8487 C   0  0  0  0  0  0  0  0  0  0  0  0
   18.0663   19.5785   23.9069 H   0  0  0  0  0  0  0  0  0  0  0  0
   17.5856   20.2643   22.3646 H   0  0  0  0  0  0  0  0  0  0  0  0
   18.3215   18.2376   22.2159 C   0  0  0  0  0  0  0  0  0  0  0  0
   18.9035   17.5204   22.8067 H   0  0  0  0  0  0  0  0  0  0  0  0
   17.2910   17.8615   22.1755 H   0  0  0  0  0  0  0  0  0  0  0  0
   18.7136   18.2511   21.1908 H   0  0  0  0  0  0  0  0  0  0  0  0
  1  2  1  0  0  0  0
  1  3  1  0  0  0  0
  1  4  1  0  0  0  0
  1  5  1  0  0  0  0
  5  6  1  0  0  0  0
  5  7  1  0  0  0  0
  5  8  1  0  0  0  0
  8  9  1  0  0  0  0
  8 10  1  0  0  0  0
  8 11  1  0  0  0  0
 11 12  1  0  0  0  0
 11 13  1  0  0  0  0
 11 14  1  0  0  0  0
 14 15  1  0  0  0  0
 14 16  1  0  0  0  0
 14 17  1  0  0  0  0
 17 18  1  0  0  0  0
 17 19  1  0  0  0  0
 17 20  1  0  0  0  0
M  END
> <VConfSearch Rank>
734

> <Conf_Id>
65

> <Delta U+W>
2.949

> <U+W>
-8.829

> <U>
49.435

> <W>
-58.263

> <W(PB)>
-60.125

> <W(SA)>
1.862

> <Valence>
3.797

> <Coulomb>
45.253

> <VdW>
0.384

> <VdW6>
-5.596

> <VdW12>
5.980

> <Bond>
0.198

> <Angle>
1.369

> <Pdih>
2.230

> <Idih>
0.000

> <Tether>
0.000

$$$$
VeraChem MOL file


 20 19  0  0  0  0  0  0  0  0999 V2000     
   18.5453   19.9359   21.4841 N   0  3  0  0  0  0  0  0  0  0  0  0
   18.2995   20.7715   20.9428 H   0  0  0  0  0  0  0  0  0  0  0  0
   19.3216   19.4751   20.9996 H   0  0  0  0  0  0  0  0  0  0  0  0
   17.7397   19.3041   21.4392 H   0  0  0  0  0  0  0  0  0  0  0  0
   18.9121   20.2789   22.9150 C   0  0  0  0  0  0  0  0  0  0  0  0
   18.0386   20.7618   23.3616 H   0  0  0  0  0  0  0  0  0  0  0  0
   19.7309   21.0032   22.9032 H   0  0  0  0  0  0  0  0  0  0  0  0
   19.3050   19.0578   23.7711 C   0  0  0  0  0  0  0  0  0  0  0  0
   19.1428   19.3228   24.8243 H   0  0  0  0  0  0  0  0  0  0  0  0
   18.6213   18.2237   23.5648 H   0  0  0  0  0  0  0  0  0  0  0  0
   20.7782   18.5920   23.6218 C   0  0  0  0  0  0  0  0  0  0  0  0
   20.9316   17.7591   24.3220 H   0  0  0  0  0  0  0  0  0  0  0  0
   21.4582   19.3868   23.9586 H   0  0  0  0  0  0  0  0  0  0  0  0
   21.1842   18.1091   22.2060 C   0  0  0  0  0  0  0  0  0  0  0  0
   21.8954   17.2775   22.3105 H   0  0  0  0  0  0  0  0  0  0  0  0
   20.3163   17.6905   21.6790 H   0  0  0  0  0  0  0  0  0  0  0  0
   21.8666   19.2108   21.3607 C   0  0  0  0  0  0  0  0  0  0  0  0
   21.2490   20.1105   21.2668 H   0  0  0  0  0  0  0  0  0  0  0  0
   22.8190   19.5122   21.8161 H   0  0  0  0  0  0  0  0  0  0  0  0
   22.0860   18.8428   20.3499 H   0  0  0  0  0  0  0  0  0  0  0  0
  1  2  1  0  0  0  0
  1  3  1  0  0  0  0
  1  4  1  0  0  0  0
  1  5  1  0  0  0  0
  5  6  1  0  0  0  0
  5  7  1  0  0  0  0
  5  8  1  0  0  0  0
  8  9  1  0  0  0  0
  8 10  1  0  0  0  0
  8 11  1  0  0  0  0
 11 12  1  0  0  0  0
 11 13  1  0  0  0  0
 11 14  1  0  0  0  0
 14 15  1  0  0  0  0
 14 16  1  0  0  0  0
 14 17  1  0  0  0  0
 17 18  1  0  0  0  0
 17 19  1  0  0  0  0
 17 20  1  0  0  0  0
M  END
> <VConfSearch Rank>
735

> <Conf_Id>
77

> <Delta U+W>
5.366

> <U+W>
-6.412

> <U>
51.542

> <W>
-57.954

> <W(PB)>
-59.811

> <W(SA)>
1.857

> <Valence>
5.347

> <Coulomb>
45.870

> <VdW>
0.325

> <VdW6>
-6.161

> <VdW12>
6.486

> <Bond>
0.201

> <Angle>
1.484

> <Pdih>
3.662

> <Idih>
0.000

> <Tether>
0.000

$$$$
VeraChem MOL file


 20 19  0  0  0  0  0  0  0  0999 V2000     
   18.6146   17.9356   22.0510 N   0  3  0  0  0  0  0  0  0  0  0  0
   17.7919   18.4597   21.7365 H   0  0  0  0  0  0  0  0  0  0  0  0
   19.3565   18.0901   21.3616 H   0  0  0  0  0  0  0  0  0  0  0  0
   18.3660   16.9413   22.0158 H   0  0  0  0  0  0  0  0  0  0  0  0
   19.0534   18.3579   23.4398 C   0  0  0  0  0  0  0  0  0  0  0  0
   19.8890   17.7254   23.7511 H   0  0  0  0  0  0  0  0  0  0  0  0
   18.2133   18.1655   24.1126 H   0  0  0  0  0  0  0  0  0  0  0  0
   19.4531   19.8437   23.5458 C   0  0  0  0  0  0  0  0  0  0  0  0
   18.7400   20.4615   22.9841 H   0  0  0  0  0  0  0  0  0  0  0  0
   19.3449   20.1440   24.5965 H   0  0  0  0  0  0  0  0  0  0  0  0
   20.9060   20.1706   23.1075 C   0  0  0  0  0  0  0  0  0  0  0  0
   21.6203   19.6524   23.7623 H   0  0  0  0  0  0  0  0  0  0  0  0
   21.0693   21.2425   23.2860 H   0  0  0  0  0  0  0  0  0  0  0  0
   21.2361   19.8761   21.6219 C   0  0  0  0  0  0  0  0  0  0  0  0
   20.3352   19.9737   21.0013 H   0  0  0  0  0  0  0  0  0  0  0  0
   21.9300   20.6471   21.2582 H   0  0  0  0  0  0  0  0  0  0  0  0
   21.9076   18.4984   21.4102 C   0  0  0  0  0  0  0  0  0  0  0  0
   22.0724   18.3084   20.3416 H   0  0  0  0  0  0  0  0  0  0  0  0
   22.8867   18.4661   21.9059 H   0  0  0  0  0  0  0  0  0  0  0  0
   21.3094   17.6738   21.8123 H   0  0  0  0  0  0  0  0  0  0  0  0
  1  2  1  0  0  0  0
  1  3  1  0  0  0  0
  1  4  1  0  0  0  0
  1  5  1  0  0  0  0
  5  6  1  0  0  0  0
  5  7  1  0  0  0  0
  5  8  1  0  0  0  0
  8  9  1  0  0  0  0
  8 10  1  0  0  0  0
  8 11  1  0  0  0  0
 11 12  1  0  0  0  0
 11 13  1  0  0  0  0
 11 14  1  0  0  0  0
 14 15  1  0  0  0  0
 14 16  1  0  0  0  0
 14 17  1  0  0  0  0
 17 18  1  0  0  0  0
 17 19  1  0  0  0  0
 17 20  1  0  0  0  0
M  END
> <VConfSearch Rank>
736

> <Conf_Id>
67

> <Delta U+W>
5.353

> <U+W>
-6.425

> <U>
51.541

> <W>
-57.966

> <W(PB)>
-59.821

> <W(SA)>
1.855

> <Valence>
5.347

> <Coulomb>
45.870

> <VdW>
0.325

> <VdW6>
-6.161

> <VdW12>
6.486

> <Bond>
0.201

> <Angle>
1.485

> <Pdih>
3.662

> <Idih>
0.000

> <Tether>
0.000

$$$$
VeraChem MOL file


 20 19  0  0  0  0  0  0  0  0999 V2000     
   20.9721   18.2698   25.4529 N   0  3  0  0  0  0  0  0  0  0  0  0
   20.6058   19.0919   25.9430 H   0  0  0  0  0  0  0  0  0  0  0  0
   20.8274   17.4655   26.0724 H   0  0  0  0  0  0  0  0  0  0  0  0
   21.9851   18.3983   25.3647 H   0  0  0  0  0  0  0  0  0  0  0  0
   20.3069   18.0700   24.1060 C   0  0  0  0  0  0  0  0  0  0  0  0
   19.2390   17.9097   24.2774 H   0  0  0  0  0  0  0  0  0  0  0  0
   20.7219   17.1642   23.6557 H   0  0  0  0  0  0  0  0  0  0  0  0
   20.5051   19.2607   23.1508 C   0  0  0  0  0  0  0  0  0  0  0  0
   20.1013   20.1710   23.6138 H   0  0  0  0  0  0  0  0  0  0  0  0
   21.5791   19.4280   22.9941 H   0  0  0  0  0  0  0  0  0  0  0  0
   19.8126   19.0171   21.7915 C   0  0  0  0  0  0  0  0  0  0  0  0
   18.7392   18.8449   21.9525 H   0  0  0  0  0  0  0  0  0  0  0  0
   20.2153   18.1028   21.3335 H   0  0  0  0  0  0  0  0  0  0  0  0
   20.0049   20.2065   20.8240 C   0  0  0  0  0  0  0  0  0  0  0  0
   19.6015   21.1229   21.2774 H   0  0  0  0  0  0  0  0  0  0  0  0
   21.0774   20.3809   20.6585 H   0  0  0  0  0  0  0  0  0  0  0  0
   19.3113   19.9587   19.4674 C   0  0  0  0  0  0  0  0  0  0  0  0
   18.2307   19.8148   19.5966 H   0  0  0  0  0  0  0  0  0  0  0  0
   19.4589   20.8136   18.7946 H   0  0  0  0  0  0  0  0  0  0  0  0
   19.7182   19.0671   18.9727 H   0  0  0  0  0  0  0  0  0  0  0  0
  1  2  1  0  0  0  0
  1  3  1  0  0  0  0
  1  4  1  0  0  0  0
  1  5  1  0  0  0  0
  5  6  1  0  0  0  0
  5  7  1  0  0  0  0
  5  8  1  0  0  0  0
  8  9  1  0  0  0  0
  8 10  1  0  0  0  0
  8 11  1  0  0  0  0
 11 12  1  0  0  0  0
 11 13  1  0  0  0  0
 11 14  1  0  0  0  0
 14 15  1  0  0  0  0
 14 16  1  0  0  0  0
 14 17  1  0  0  0  0
 17 18  1  0  0  0  0
 17 19  1  0  0  0  0
 17 20  1  0  0  0  0
M  END
> <VConfSearch Rank>
737

> <Conf_Id>
72

> <Delta U+W>
0.000

> <U+W>
-11.778

> <U>
45.772

> <W>
-57.550

> <W(PB)>
-59.511

> <W(SA)>
1.961

> <Valence>
1.299

> <Coulomb>
44.177

> <VdW>
0.297

> <VdW6>
-3.490

> <VdW12>
3.786

> <Bond>
0.096

> <Angle>
0.381

> <Pdih>
0.822

> <Idih>
0.000

> <Tether>
0.000

$$$$
VeraChem MOL file


 20 19  0  0  0  0  0  0  0  0999 V2000     
   22.2041   20.3830   24.2574 N   0  3  0  0  0  0  0  0  0  0  0  0
   22.9414   20.1428   23.5873 H   0  0  0  0  0  0  0  0  0  0  0  0
   21.9653   21.3676   24.1025 H   0  0  0  0  0  0  0  0  0  0  0  0
   22.6208   20.3219   25.1924 H   0  0  0  0  0  0  0  0  0  0  0  0
   20.9961   19.4785   24.1193 C   0  0  0  0  0  0  0  0  0  0  0  0
   20.2673   19.7703   24.8804 H   0  0  0  0  0  0  0  0  0  0  0  0
   21.3163   18.4537   24.3258 H   0  0  0  0  0  0  0  0  0  0  0  0
   20.3452   19.5465   22.7261 C   0  0  0  0  0  0  0  0  0  0  0  0
   20.0396   20.5802   22.5163 H   0  0  0  0  0  0  0  0  0  0  0  0
   21.0899   19.2691   21.9695 H   0  0  0  0  0  0  0  0  0  0  0  0
   19.1169   18.6109   22.6312 C   0  0  0  0  0  0  0  0  0  0  0  0
   18.4182   18.8543   23.4438 H   0  0  0  0  0  0  0  0  0  0  0  0
   19.4305   17.5706   22.7955 H   0  0  0  0  0  0  0  0  0  0  0  0
   18.3617   18.7173   21.2840 C   0  0  0  0  0  0  0  0  0  0  0  0
   17.4514   18.1039   21.3406 H   0  0  0  0  0  0  0  0  0  0  0  0
   18.0253   19.7517   21.1269 H   0  0  0  0  0  0  0  0  0  0  0  0
   19.2000   18.2534   20.0709 C   0  0  0  0  0  0  0  0  0  0  0  0
   19.5724   17.2310   20.2155 H   0  0  0  0  0  0  0  0  0  0  0  0
   18.5912   18.2622   19.1575 H   0  0  0  0  0  0  0  0  0  0  0  0
   20.0603   18.9120   19.8992 H   0  0  0  0  0  0  0  0  0  0  0  0
  1  2  1  0  0  0  0
  1  3  1  0  0  0  0
  1  4  1  0  0  0  0
  1  5  1  0  0  0  0
  5  6  1  0  0  0  0
  5  7  1  0  0  0  0
  5  8  1  0  0  0  0
  8  9  1  0  0  0  0
  8 10  1  0  0  0  0
  8 11  1  0  0  0  0
 11 12  1  0  0  0  0
 11 13  1  0  0  0  0
 11 14  1  0  0  0  0
 14 15  1  0  0  0  0
 14 16  1  0  0  0  0
 14 17  1  0  0  0  0
 17 18  1  0  0  0  0
 17 19  1  0  0  0  0
 17 20  1  0  0  0  0
M  END
> <VConfSearch Rank>
738

> <Conf_Id>
42

> <Delta U+W>
0.508

> <U+W>
-11.270

> <U>
46.486

> <W>
-57.756

> <W(PB)>
-59.705

> <W(SA)>
1.949

> <Valence>
1.806

> <Coulomb>
44.248

> <VdW>
0.433

> <VdW6>
-4.089

> <VdW12>
4.522

> <Bond>
0.131

> <Angle>
0.628

> <Pdih>
1.047

> <Idih>
0.000

> <Tether>
0.000

$$$$
VeraChem MOL file


 20 19  0  0  0  0  0  0  0  0999 V2000     
   23.0368   18.2076   22.6028 N   0  3  0  0  0  0  0  0  0  0  0  0
   22.9878   17.6859   23.4835 H   0  0  0  0  0  0  0  0  0  0  0  0
   22.8945   17.5330   21.8445 H   0  0  0  0  0  0  0  0  0  0  0  0
   23.9980   18.5542   22.5158 H   0  0  0  0  0  0  0  0  0  0  0  0
   22.0254   19.3352   22.5552 C   0  0  0  0  0  0  0  0  0  0  0  0
   22.1538   19.8642   21.6070 H   0  0  0  0  0  0  0  0  0  0  0  0
   22.2548   20.0287   23.3688 H   0  0  0  0  0  0  0  0  0  0  0  0
   20.5706   18.8491   22.6839 C   0  0  0  0  0  0  0  0  0  0  0  0
   20.3571   18.1408   21.8735 H   0  0  0  0  0  0  0  0  0  0  0  0
   20.4501   18.3049   23.6300 H   0  0  0  0  0  0  0  0  0  0  0  0
   19.5743   20.0315   22.6327 C   0  0  0  0  0  0  0  0  0  0  0  0
   19.6626   20.5484   21.6670 H   0  0  0  0  0  0  0  0  0  0  0  0
   19.8510   20.7660   23.4020 H   0  0  0  0  0  0  0  0  0  0  0  0
   18.1025   19.6097   22.8615 C   0  0  0  0  0  0  0  0  0  0  0  0
   18.0051   19.1135   23.8373 H   0  0  0  0  0  0  0  0  0  0  0  0
   17.4805   20.5144   22.9141 H   0  0  0  0  0  0  0  0  0  0  0  0
   17.5475   18.6877   21.7518 C   0  0  0  0  0  0  0  0  0  0  0  0
   18.0600   17.7179   21.7389 H   0  0  0  0  0  0  0  0  0  0  0  0
   16.4792   18.4934   21.9126 H   0  0  0  0  0  0  0  0  0  0  0  0
   17.6588   19.1493   20.7621 H   0  0  0  0  0  0  0  0  0  0  0  0
  1  2  1  0  0  0  0
  1  3  1  0  0  0  0
  1  4  1  0  0  0  0
  1  5  1  0  0  0  0
  5  6  1  0  0  0  0
  5  7  1  0  0  0  0
  5  8  1  0  0  0  0
  8  9  1  0  0  0  0
  8 10  1  0  0  0  0
  8 11  1  0  0  0  0
 11 12  1  0  0  0  0
 11 13  1  0  0  0  0
 11 14  1  0  0  0  0
 14 15  1  0  0  0  0
 14 16  1  0  0  0  0
 14 17  1  0  0  0  0
 17 18  1  0  0  0  0
 17 19  1  0  0  0  0
 17 20  1  0  0  0  0
M  END
> <VConfSearch Rank>
739

> <Conf_Id>
41

> <Delta U+W>
0.515

> <U+W>
-11.263

> <U>
46.486

> <W>
-57.749

> <W(PB)>
-59.685

> <W(SA)>
1.936

> <Valence>
1.806

> <Coulomb>
44.248

> <VdW>
0.433

> <VdW6>
-4.089

> <VdW12>
4.522

> <Bond>
0.131

> <Angle>
0.628

> <Pdih>
1.047

> <Idih>
0.000

> <Tether>
0.000

$$$$
VeraChem MOL file


 20 19  0  0  0  0  0  0  0  0999 V2000     
   22.1064   19.8525   20.6505 N   0  3  0  0  0  0  0  0  0  0  0  0
   23.0502   20.1855   20.4269 H   0  0  0  0  0  0  0  0  0  0  0  0
   22.1345   18.8294   20.6124 H   0  0  0  0  0  0  0  0  0  0  0  0
   21.4924   20.1671   19.8928 H   0  0  0  0  0  0  0  0  0  0  0  0
   21.6382   20.3551   22.0026 C   0  0  0  0  0  0  0  0  0  0  0  0
   21.6769   21.4477   21.9805 H   0  0  0  0  0  0  0  0  0  0  0  0
   22.3459   20.0055   22.7591 H   0  0  0  0  0  0  0  0  0  0  0  0
   20.2129   19.9036   22.3777 C   0  0  0  0  0  0  0  0  0  0  0  0
   19.9303   20.4129   23.3074 H   0  0  0  0  0  0  0  0  0  0  0  0
   19.5070   20.2412   21.6073 H   0  0  0  0  0  0  0  0  0  0  0  0
   20.1012   18.3696   22.5660 C   0  0  0  0  0  0  0  0  0  0  0  0
   20.7937   18.0424   23.3539 H   0  0  0  0  0  0  0  0  0  0  0  0
   20.4201   17.8641   21.6450 H   0  0  0  0  0  0  0  0  0  0  0  0
   18.6681   17.8932   22.9072 C   0  0  0  0  0  0  0  0  0  0  0  0
   17.9736   18.2063   22.1150 H   0  0  0  0  0  0  0  0  0  0  0  0
   18.6540   16.7942   22.9105 H   0  0  0  0  0  0  0  0  0  0  0  0
   18.1589   18.4004   24.2758 C   0  0  0  0  0  0  0  0  0  0  0  0
   18.0355   19.4903   24.2826 H   0  0  0  0  0  0  0  0  0  0  0  0
   17.1822   17.9575   24.5101 H   0  0  0  0  0  0  0  0  0  0  0  0
   18.8525   18.1271   25.0816 H   0  0  0  0  0  0  0  0  0  0  0  0
  1  2  1  0  0  0  0
  1  3  1  0  0  0  0
  1  4  1  0  0  0  0
  1  5  1  0  0  0  0
  5  6  1  0  0  0  0
  5  7  1  0  0  0  0
  5  8  1  0  0  0  0
  8  9  1  0  0  0  0
  8 10  1  0  0  0  0
  8 11  1  0  0  0  0
 11 12  1  0  0  0  0
 11 13  1  0  0  0  0
 11 14  1  0  0  0  0
 14 15  1  0  0  0  0
 14 16  1  0  0  0  0
 14 17  1  0  0  0  0
 17 18  1  0  0  0  0
 17 19  1  0  0  0  0
 17 20  1  0  0  0  0
M  END
> <VConfSearch Rank>
740

> <Conf_Id>
33

> <Delta U+W>
0.703

> <U+W>
-11.075

> <U>
47.080

> <W>
-58.154

> <W(PB)>
-60.053

> <W(SA)>
1.899

> <Valence>
1.943

> <Coulomb>
44.572

> <VdW>
0.565

> <VdW6>
-4.575

> <VdW12>
5.139

> <Bond>
0.158

> <Angle>
0.700

> <Pdih>
1.085

> <Idih>
0.000

> <Tether>
0.000

$$$$
VeraChem MOL file


 20 19  0  0  0  0  0  0  0  0999 V2000     
   22.2478   18.4754   24.1424 N   0  3  0  0  0  0  0  0  0  0  0  0
   22.6192   18.1972   25.0568 H   0  0  0  0  0  0  0  0  0  0  0  0
   22.8875   18.1009   23.4348 H   0  0  0  0  0  0  0  0  0  0  0  0
   22.3079   19.4967   24.0946 H   0  0  0  0  0  0  0  0  0  0  0  0
   20.8281   17.9826   23.9381 C   0  0  0  0  0  0  0  0  0  0  0  0
   20.2059   18.3981   24.7354 H   0  0  0  0  0  0  0  0  0  0  0  0
   20.8373   16.8946   24.0465 H   0  0  0  0  0  0  0  0  0  0  0  0
   20.2296   18.3526   22.5668 C   0  0  0  0  0  0  0  0  0  0  0  0
   20.8660   17.9489   21.7682 H   0  0  0  0  0  0  0  0  0  0  0  0
   19.2571   17.8530   22.4761 H   0  0  0  0  0  0  0  0  0  0  0  0
   20.0521   19.8811   22.3839 C   0  0  0  0  0  0  0  0  0  0  0  0
   21.0221   20.3795   22.5117 H   0  0  0  0  0  0  0  0  0  0  0  0
   19.3962   20.2742   23.1730 H   0  0  0  0  0  0  0  0  0  0  0  0
   19.4859   20.2745   20.9977 C   0  0  0  0  0  0  0  0  0  0  0  0
   19.4995   21.3700   20.9099 H   0  0  0  0  0  0  0  0  0  0  0  0
   20.1459   19.8952   20.2050 H   0  0  0  0  0  0  0  0  0  0  0  0
   18.0429   19.7751   20.7565 C   0  0  0  0  0  0  0  0  0  0  0  0
   17.3686   20.1149   21.5533 H   0  0  0  0  0  0  0  0  0  0  0  0
   17.6573   20.1612   19.8041 H   0  0  0  0  0  0  0  0  0  0  0  0
   17.9966   18.6801   20.7099 H   0  0  0  0  0  0  0  0  0  0  0  0
  1  2  1  0  0  0  0
  1  3  1  0  0  0  0
  1  4  1  0  0  0  0
  1  5  1  0  0  0  0
  5  6  1  0  0  0  0
  5  7  1  0  0  0  0
  5  8  1  0  0  0  0
  8  9  1  0  0  0  0
  8 10  1  0  0  0  0
  8 11  1  0  0  0  0
 11 12  1  0  0  0  0
 11 13  1  0  0  0  0
 11 14  1  0  0  0  0
 14 15  1  0  0  0  0
 14 16  1  0  0  0  0
 14 17  1  0  0  0  0
 17 18  1  0  0  0  0
 17 19  1  0  0  0  0
 17 20  1  0  0  0  0
M  END
> <VConfSearch Rank>
741

> <Conf_Id>
24

> <Delta U+W>
0.847

> <U+W>
-10.931

> <U>
47.080

> <W>
-58.011

> <W(PB)>
-59.914

> <W(SA)>
1.903

> <Valence>
1.943

> <Coulomb>
44.572

> <VdW>
0.565

> <VdW6>
-4.575

> <VdW12>
5.140

> <Bond>
0.158

> <Angle>
0.700

> <Pdih>
1.085

> <Idih>
0.000

> <Tether>
0.000

$$$$
VeraChem MOL file


 20 19  0  0  0  0  0  0  0  0999 V2000     
   21.9018   17.1395   22.8551 N   0  3  0  0  0  0  0  0  0  0  0  0
   22.3476   16.5707   22.1276 H   0  0  0  0  0  0  0  0  0  0  0  0
   22.6178   17.7796   23.2125 H   0  0  0  0  0  0  0  0  0  0  0  0
   21.6571   16.5036   23.6207 H   0  0  0  0  0  0  0  0  0  0  0  0
   20.6910   17.8818   22.3267 C   0  0  0  0  0  0  0  0  0  0  0  0
   19.9851   17.1432   21.9372 H   0  0  0  0  0  0  0  0  0  0  0  0
   21.0200   18.5138   21.4978 H   0  0  0  0  0  0  0  0  0  0  0  0
   19.9976   18.7473   23.3957 C   0  0  0  0  0  0  0  0  0  0  0  0
   19.7085   18.1097   24.2417 H   0  0  0  0  0  0  0  0  0  0  0  0
   20.7078   19.4830   23.7940 H   0  0  0  0  0  0  0  0  0  0  0  0
   18.7351   19.4665   22.8583 C   0  0  0  0  0  0  0  0  0  0  0  0
   18.2860   20.0532   23.6715 H   0  0  0  0  0  0  0  0  0  0  0  0
   17.9859   18.7121   22.5809 H   0  0  0  0  0  0  0  0  0  0  0  0
   18.9830   20.3941   21.6412 C   0  0  0  0  0  0  0  0  0  0  0  0
   19.3333   19.8069   20.7814 H   0  0  0  0  0  0  0  0  0  0  0  0
   18.0234   20.8335   21.3346 H   0  0  0  0  0  0  0  0  0  0  0  0
   19.9828   21.5363   21.9326 C   0  0  0  0  0  0  0  0  0  0  0  0
   20.0517   22.2155   21.0730 H   0  0  0  0  0  0  0  0  0  0  0  0
   19.6655   22.1266   22.8020 H   0  0  0  0  0  0  0  0  0  0  0  0
   20.9905   21.1493   22.1284 H   0  0  0  0  0  0  0  0  0  0  0  0
  1  2  1  0  0  0  0
  1  3  1  0  0  0  0
  1  4  1  0  0  0  0
  1  5  1  0  0  0  0
  5  6  1  0  0  0  0
  5  7  1  0  0  0  0
  5  8  1  0  0  0  0
  8  9  1  0  0  0  0
  8 10  1  0  0  0  0
  8 11  1  0  0  0  0
 11 12  1  0  0  0  0
 11 13  1  0  0  0  0
 11 14  1  0  0  0  0
 14 15  1  0  0  0  0
 14 16  1  0  0  0  0
 14 17  1  0  0  0  0
 17 18  1  0  0  0  0
 17 19  1  0  0  0  0
 17 20  1  0  0  0  0
M  END
> <VConfSearch Rank>
742

> <Conf_Id>
64

> <Delta U+W>
0.707

> <U+W>
-11.070

> <U>
47.077

> <W>
-58.148

> <W(PB)>
-60.054

> <W(SA)>
1.906

> <Valence>
2.039

> <Coulomb>
44.655

> <VdW>
0.383

> <VdW6>
-4.912

> <VdW12>
5.295

> <Bond>
0.159

> <Angle>
0.856

> <Pdih>
1.024

> <Idih>
0.000

> <Tether>
0.000

$$$$
VeraChem MOL file


 20 19  0  0  0  0  0  0  0  0999 V2000     
   18.8418   16.6784   22.5675 N   0  3  0  0  0  0  0  0  0  0  0  0
   17.8924   16.7200   22.1837 H   0  0  0  0  0  0  0  0  0  0  0  0
   19.4440   16.2815   21.8394 H   0  0  0  0  0  0  0  0  0  0  0  0
   18.8213   16.0020   23.3380 H   0  0  0  0  0  0  0  0  0  0  0  0
   19.3275   18.0389   23.0252 C   0  0  0  0  0  0  0  0  0  0  0  0
   20.3277   17.9135   23.4482 H   0  0  0  0  0  0  0  0  0  0  0  0
   18.6599   18.3871   23.8179 H   0  0  0  0  0  0  0  0  0  0  0  0
   19.3707   19.0794   21.8902 C   0  0  0  0  0  0  0  0  0  0  0  0
   20.0335   18.7265   21.0898 H   0  0  0  0  0  0  0  0  0  0  0  0
   18.3707   19.1669   21.4453 H   0  0  0  0  0  0  0  0  0  0  0  0
   19.8251   20.4783   22.3764 C   0  0  0  0  0  0  0  0  0  0  0  0
   19.0812   20.8687   23.0847 H   0  0  0  0  0  0  0  0  0  0  0  0
   19.8218   21.1705   21.5231 H   0  0  0  0  0  0  0  0  0  0  0  0
   21.2208   20.5115   23.0505 C   0  0  0  0  0  0  0  0  0  0  0  0
   21.4308   21.5418   23.3704 H   0  0  0  0  0  0  0  0  0  0  0  0
   21.2138   19.9073   23.9679 H   0  0  0  0  0  0  0  0  0  0  0  0
   22.3624   20.0358   22.1235 C   0  0  0  0  0  0  0  0  0  0  0  0
   22.3780   20.6113   21.1889 H   0  0  0  0  0  0  0  0  0  0  0  0
   23.3357   20.1663   22.6141 H   0  0  0  0  0  0  0  0  0  0  0  0
   22.2603   18.9729   21.8716 H   0  0  0  0  0  0  0  0  0  0  0  0
  1  2  1  0  0  0  0
  1  3  1  0  0  0  0
  1  4  1  0  0  0  0
  1  5  1  0  0  0  0
  5  6  1  0  0  0  0
  5  7  1  0  0  0  0
  5  8  1  0  0  0  0
  8  9  1  0  0  0  0
  8 10  1  0  0  0  0
  8 11  1  0  0  0  0
 11 12  1  0  0  0  0
 11 13  1  0  0  0  0
 11 14  1  0  0  0  0
 14 15  1  0  0  0  0
 14 16  1  0  0  0  0
 14 17  1  0  0  0  0
 17 18  1  0  0  0  0
 17 19  1  0  0  0  0
 17 20  1  0  0  0  0
M  END
> <VConfSearch Rank>
743

> <Conf_Id>
22

> <Delta U+W>
0.731

> <U+W>
-11.047

> <U>
47.078

> <W>
-58.125

> <W(PB)>
-60.031

> <W(SA)>
1.906

> <Valence>
2.039

> <Coulomb>
44.655

> <VdW>
0.383

> <VdW6>
-4.913

> <VdW12>
5.296

> <Bond>
0.159

> <Angle>
0.856

> <Pdih>
1.024

> <Idih>
0.000

> <Tether>
0.000

$$$$
VeraChem MOL file


 20 19  0  0  0  0  0  0  0  0999 V2000     
   17.9671   19.1915   20.8542 N   0  3  0  0  0  0  0  0  0  0  0  0
   17.2093   19.0010   21.5174 H   0  0  0  0  0  0  0  0  0  0  0  0
   17.7767   20.1067   20.4342 H   0  0  0  0  0  0  0  0  0  0  0  0
   17.8867   18.4976   20.1035 H   0  0  0  0  0  0  0  0  0  0  0  0
   19.3275   19.1459   21.5204 C   0  0  0  0  0  0  0  0  0  0  0  0
   20.0857   19.3293   20.7543 H   0  0  0  0  0  0  0  0  0  0  0  0
   19.4694   18.1376   21.9158 H   0  0  0  0  0  0  0  0  0  0  0  0
   19.4784   20.1728   22.6568 C   0  0  0  0  0  0  0  0  0  0  0  0
   19.2156   21.1670   22.2714 H   0  0  0  0  0  0  0  0  0  0  0  0
   18.7550   19.9474   23.4516 H   0  0  0  0  0  0  0  0  0  0  0  0
   20.9058   20.2409   23.2566 C   0  0  0  0  0  0  0  0  0  0  0  0
   20.9179   21.0623   23.9865 H   0  0  0  0  0  0  0  0  0  0  0  0
   21.6300   20.5237   22.4801 H   0  0  0  0  0  0  0  0  0  0  0  0
   21.3726   18.9509   23.9798 C   0  0  0  0  0  0  0  0  0  0  0  0
   22.0936   19.2345   24.7594 H   0  0  0  0  0  0  0  0  0  0  0  0
   20.5292   18.4820   24.5055 H   0  0  0  0  0  0  0  0  0  0  0  0
   22.0621   17.9251   23.0496 C   0  0  0  0  0  0  0  0  0  0  0  0
   21.3782   17.5224   22.2953 H   0  0  0  0  0  0  0  0  0  0  0  0
   22.9158   18.3776   22.5286 H   0  0  0  0  0  0  0  0  0  0  0  0
   22.4419   17.0762   23.6328 H   0  0  0  0  0  0  0  0  0  0  0  0
  1  2  1  0  0  0  0
  1  3  1  0  0  0  0
  1  4  1  0  0  0  0
  1  5  1  0  0  0  0
  5  6  1  0  0  0  0
  5  7  1  0  0  0  0
  5  8  1  0  0  0  0
  8  9  1  0  0  0  0
  8 10  1  0  0  0  0
  8 11  1  0  0  0  0
 11 12  1  0  0  0  0
 11 13  1  0  0  0  0
 11 14  1  0  0  0  0
 14 15  1  0  0  0  0
 14 16  1  0  0  0  0
 14 17  1  0  0  0  0
 17 18  1  0  0  0  0
 17 19  1  0  0  0  0
 17 20  1  0  0  0  0
M  END
> <VConfSearch Rank>
744

> <Conf_Id>
61

> <Delta U+W>
2.669

> <U+W>
-9.108

> <U>
48.916

> <W>
-58.025

> <W(PB)>
-59.935

> <W(SA)>
1.911

> <Valence>
3.785

> <Coulomb>
44.716

> <VdW>
0.415

> <VdW6>
-4.836

> <VdW12>
5.251

> <Bond>
0.175

> <Angle>
1.195

> <Pdih>
2.415

> <Idih>
0.000

> <Tether>
0.000

$$$$
VeraChem MOL file


 20 19  0  0  0  0  0  0  0  0999 V2000     
   21.3060   20.6498   23.5783 N   0  3  0  0  0  0  0  0  0  0  0  0
   21.6025   21.6314   23.5820 H   0  0  0  0  0  0  0  0  0  0  0  0
   21.7692   20.1972   24.3727 H   0  0  0  0  0  0  0  0  0  0  0  0
   21.6828   20.2252   22.7270 H   0  0  0  0  0  0  0  0  0  0  0  0
   19.7970   20.5185   23.6577 C   0  0  0  0  0  0  0  0  0  0  0  0
   19.3548   21.0664   22.8212 H   0  0  0  0  0  0  0  0  0  0  0  0
   19.4837   21.0067   24.5846 H   0  0  0  0  0  0  0  0  0  0  0  0
   19.2841   19.0630   23.6603 C   0  0  0  0  0  0  0  0  0  0  0  0
   19.9138   18.4431   24.3122 H   0  0  0  0  0  0  0  0  0  0  0  0
   18.2857   19.0620   24.1174 H   0  0  0  0  0  0  0  0  0  0  0  0
   19.1630   18.4196   22.2549 C   0  0  0  0  0  0  0  0  0  0  0  0
   18.4838   19.0205   21.6344 H   0  0  0  0  0  0  0  0  0  0  0  0
   18.6835   17.4375   22.3690 H   0  0  0  0  0  0  0  0  0  0  0  0
   20.5091   18.2349   21.5158 C   0  0  0  0  0  0  0  0  0  0  0  0
   20.9336   19.2131   21.2575 H   0  0  0  0  0  0  0  0  0  0  0  0
   21.2298   17.7279   22.1728 H   0  0  0  0  0  0  0  0  0  0  0  0
   20.3376   17.4157   20.2187 C   0  0  0  0  0  0  0  0  0  0  0  0
   21.2993   17.3020   19.7017 H   0  0  0  0  0  0  0  0  0  0  0  0
   19.9510   16.4109   20.4334 H   0  0  0  0  0  0  0  0  0  0  0  0
   19.6410   17.9098   19.5289 H   0  0  0  0  0  0  0  0  0  0  0  0
  1  2  1  0  0  0  0
  1  3  1  0  0  0  0
  1  4  1  0  0  0  0
  1  5  1  0  0  0  0
  5  6  1  0  0  0  0
  5  7  1  0  0  0  0
  5  8  1  0  0  0  0
  8  9  1  0  0  0  0
  8 10  1  0  0  0  0
  8 11  1  0  0  0  0
 11 12  1  0  0  0  0
 11 13  1  0  0  0  0
 11 14  1  0  0  0  0
 14 15  1  0  0  0  0
 14 16  1  0  0  0  0
 14 17  1  0  0  0  0
 17 18  1  0  0  0  0
 17 19  1  0  0  0  0
 17 20  1  0  0  0  0
M  END
> <VConfSearch Rank>
745

> <Conf_Id>
69

> <Delta U+W>
2.811

> <U+W>
-8.967

> <U>
49.216

> <W>
-58.183

> <W(PB)>
-60.064

> <W(SA)>
1.881

> <Valence>
2.929

> <Coulomb>
46.006

> <VdW>
0.281

> <VdW6>
-4.909

> <VdW12>
5.190

> <Bond>
0.156

> <Angle>
0.974

> <Pdih>
1.799

> <Idih>
0.000

> <Tether>
0.000

$$$$
VeraChem MOL file


 20 19  0  0  0  0  0  0  0  0999 V2000     
   19.8942   17.9712   24.3742 N   0  3  0  0  0  0  0  0  0  0  0  0
   20.7113   17.8742   23.7660 H   0  0  0  0  0  0  0  0  0  0  0  0
   20.1661   18.5818   25.1511 H   0  0  0  0  0  0  0  0  0  0  0  0
   19.7059   17.0465   24.7756 H   0  0  0  0  0  0  0  0  0  0  0  0
   18.6916   18.5143   23.6262 C   0  0  0  0  0  0  0  0  0  0  0  0
   17.8697   18.5721   24.3449 H   0  0  0  0  0  0  0  0  0  0  0  0
   18.4113   17.7977   22.8495 H   0  0  0  0  0  0  0  0  0  0  0  0
   18.9080   19.9080   22.9998 C   0  0  0  0  0  0  0  0  0  0  0  0
   17.9205   20.3667   22.8576 H   0  0  0  0  0  0  0  0  0  0  0  0
   19.4430   20.5585   23.7044 H   0  0  0  0  0  0  0  0  0  0  0  0
   19.6264   19.8930   21.6260 C   0  0  0  0  0  0  0  0  0  0  0  0
   19.6208   20.9166   21.2264 H   0  0  0  0  0  0  0  0  0  0  0  0
   19.0473   19.2854   20.9167 H   0  0  0  0  0  0  0  0  0  0  0  0
   21.0857   19.3826   21.6707 C   0  0  0  0  0  0  0  0  0  0  0  0
   21.6437   19.9137   22.4546 H   0  0  0  0  0  0  0  0  0  0  0  0
   21.1032   18.3149   21.9229 H   0  0  0  0  0  0  0  0  0  0  0  0
   21.7984   19.5790   20.3155 C   0  0  0  0  0  0  0  0  0  0  0  0
   21.8400   20.6411   20.0406 H   0  0  0  0  0  0  0  0  0  0  0  0
   22.8288   19.2033   20.3611 H   0  0  0  0  0  0  0  0  0  0  0  0
   21.2782   19.0386   19.5139 H   0  0  0  0  0  0  0  0  0  0  0  0
  1  2  1  0  0  0  0
  1  3  1  0  0  0  0
  1  4  1  0  0  0  0
  1  5  1  0  0  0  0
  5  6  1  0  0  0  0
  5  7  1  0  0  0  0
  5  8  1  0  0  0  0
  8  9  1  0  0  0  0
  8 10  1  0  0  0  0
  8 11  1  0  0  0  0
 11 12  1  0  0  0  0
 11 13  1  0  0  0  0
 11 14  1  0  0  0  0
 14 15  1  0  0  0  0
 14 16  1  0  0  0  0
 14 17  1  0  0  0  0
 17 18  1  0  0  0  0
 17 19  1  0  0  0  0
 17 20  1  0  0  0  0
M  END
> <VConfSearch Rank>
746

> <Conf_Id>
26

> <Delta U+W>
2.809

> <U+W>
-8.969

> <U>
49.216

> <W>
-58.185

> <W(PB)>
-60.088

> <W(SA)>
1.903

> <Valence>
2.929

> <Coulomb>
46.006

> <VdW>
0.281

> <VdW6>
-4.909

> <VdW12>
5.190

> <Bond>
0.156

> <Angle>
0.974

> <Pdih>
1.799

> <Idih>
0.000

> <Tether>
0.000

$$$$
VeraChem MOL file


 20 19  0  0  0  0  0  0  0  0999 V2000     
   19.3734   19.1671   20.1646 N   0  3  0  0  0  0  0  0  0  0  0  0
   19.9724   18.3454   20.2869 H   0  0  0  0  0  0  0  0  0  0  0  0
   18.4241   18.8258   19.9848 H   0  0  0  0  0  0  0  0  0  0  0  0
   19.6861   19.6429   19.3119 H   0  0  0  0  0  0  0  0  0  0  0  0
   19.4240   20.0829   21.3720 C   0  0  0  0  0  0  0  0  0  0  0  0
   18.7902   20.9483   21.1604 H   0  0  0  0  0  0  0  0  0  0  0  0
   20.4520   20.4360   21.4881 H   0  0  0  0  0  0  0  0  0  0  0  0
   18.9543   19.4119   22.6787 C   0  0  0  0  0  0  0  0  0  0  0  0
   18.9500   20.1620   23.4799 H   0  0  0  0  0  0  0  0  0  0  0  0
   17.9104   19.0916   22.5630 H   0  0  0  0  0  0  0  0  0  0  0  0
   19.8167   18.1959   23.1085 C   0  0  0  0  0  0  0  0  0  0  0  0
   19.6872   17.3833   22.3811 H   0  0  0  0  0  0  0  0  0  0  0  0
   19.4294   17.8067   24.0602 H   0  0  0  0  0  0  0  0  0  0  0  0
   21.3299   18.4943   23.2639 C   0  0  0  0  0  0  0  0  0  0  0  0
   21.8433   17.5648   23.5474 H   0  0  0  0  0  0  0  0  0  0  0  0
   21.7597   18.7937   22.2985 H   0  0  0  0  0  0  0  0  0  0  0  0
   21.6357   19.5752   24.3255 C   0  0  0  0  0  0  0  0  0  0  0  0
   21.2019   19.3076   25.2977 H   0  0  0  0  0  0  0  0  0  0  0  0
   22.7194   19.6857   24.4608 H   0  0  0  0  0  0  0  0  0  0  0  0
   21.2387   20.5542   24.0295 H   0  0  0  0  0  0  0  0  0  0  0  0
  1  2  1  0  0  0  0
  1  3  1  0  0  0  0
  1  4  1  0  0  0  0
  1  5  1  0  0  0  0
  5  6  1  0  0  0  0
  5  7  1  0  0  0  0
  5  8  1  0  0  0  0
  8  9  1  0  0  0  0
  8 10  1  0  0  0  0
  8 11  1  0  0  0  0
 11 12  1  0  0  0  0
 11 13  1  0  0  0  0
 11 14  1  0  0  0  0
 14 15  1  0  0  0  0
 14 16  1  0  0  0  0
 14 17  1  0  0  0  0
 17 18  1  0  0  0  0
 17 19  1  0  0  0  0
 17 20  1  0  0  0  0
M  END
> <VConfSearch Rank>
747

> <Conf_Id>
2

> <Delta U+W>
0.994

> <U+W>
-10.784

> <U>
47.562

> <W>
-58.346

> <W(PB)>
-60.221

> <W(SA)>
1.875

> <Valence>
2.149

> <Coulomb>
45.034

> <VdW>
0.378

> <VdW6>
-5.599

> <VdW12>
5.977

> <Bond>
0.185

> <Angle>
0.935

> <Pdih>
1.028

> <Idih>
0.000

> <Tether>
0.000

$$$$
VeraChem MOL file


 20 19  0  0  0  0  0  0  0  0999 V2000     
   20.4552   20.4101   24.4664 N   0  3  0  0  0  0  0  0  0  0  0  0
   20.4592   19.9121   25.3619 H   0  0  0  0  0  0  0  0  0  0  0  0
   21.3834   20.2916   24.0501 H   0  0  0  0  0  0  0  0  0  0  0  0
   20.3463   21.4070   24.6797 H   0  0  0  0  0  0  0  0  0  0  0  0
   19.3595   19.9073   23.5467 C   0  0  0  0  0  0  0  0  0  0  0  0
   19.3889   20.4988   22.6279 H   0  0  0  0  0  0  0  0  0  0  0  0
   18.4007   20.0926   24.0386 H   0  0  0  0  0  0  0  0  0  0  0  0
   19.4775   18.4084   23.2039 C   0  0  0  0  0  0  0  0  0  0  0  0
   19.4128   17.8219   24.1298 H   0  0  0  0  0  0  0  0  0  0  0  0
   18.6086   18.1137   22.6017 H   0  0  0  0  0  0  0  0  0  0  0  0
   20.7825   18.0342   22.4528 C   0  0  0  0  0  0  0  0  0  0  0  0
   20.7625   16.9600   22.2230 H   0  0  0  0  0  0  0  0  0  0  0  0
   21.6412   18.1783   23.1222 H   0  0  0  0  0  0  0  0  0  0  0  0
   21.0287   18.8258   21.1429 C   0  0  0  0  0  0  0  0  0  0  0  0
   21.1486   19.8955   21.3617 H   0  0  0  0  0  0  0  0  0  0  0  0
   21.9838   18.4978   20.7092 H   0  0  0  0  0  0  0  0  0  0  0  0
   19.9125   18.6332   20.0913 C   0  0  0  0  0  0  0  0  0  0  0  0
   18.9585   19.0515   20.4354 H   0  0  0  0  0  0  0  0  0  0  0  0
   20.1760   19.1398   19.1538 H   0  0  0  0  0  0  0  0  0  0  0  0
   19.7610   17.5695   19.8667 H   0  0  0  0  0  0  0  0  0  0  0  0
  1  2  1  0  0  0  0
  1  3  1  0  0  0  0
  1  4  1  0  0  0  0
  1  5  1  0  0  0  0
  5  6  1  0  0  0  0
  5  7  1  0  0  0  0
  5  8  1  0  0  0  0
  8  9  1  0  0  0  0
  8 10  1  0  0  0  0
  8 11  1  0  0  0  0
 11 12  1  0  0  0  0
 11 13  1  0  0  0  0
 11 14  1  0  0  0  0
 14 15  1  0  0  0  0
 14 16  1  0  0  0  0
 14 17  1  0  0  0  0
 17 18  1  0  0  0  0
 17 19  1  0  0  0  0
 17 20  1  0  0  0  0
M  END
> <VConfSearch Rank>
748

> <Conf_Id>
1

> <Delta U+W>
1.032

> <U+W>
-10.746

> <U>
47.562

> <W>
-58.308

> <W(PB)>
-60.184

> <W(SA)>
1.877

> <Valence>
2.149

> <Coulomb>
45.035

> <VdW>
0.378

> <VdW6>
-5.599

> <VdW12>
5.978

> <Bond>
0.185

> <Angle>
0.935

> <Pdih>
1.028

> <Idih>
0.000

> <Tether>
0.000

$$$$
VeraChem MOL file


 20 19  0  0  0  0  0  0  0  0999 V2000     
   20.2191   21.4392   22.7299 N   0  3  0  0  0  0  0  0  0  0  0  0
   20.9876   21.9838   22.3262 H   0  0  0  0  0  0  0  0  0  0  0  0
   19.5857   21.1947   21.9632 H   0  0  0  0  0  0  0  0  0  0  0  0
   19.7040   22.0684   23.3545 H   0  0  0  0  0  0  0  0  0  0  0  0
   20.7218   20.2087   23.4598 C   0  0  0  0  0  0  0  0  0  0  0  0
   19.8592   19.6962   23.8883 H   0  0  0  0  0  0  0  0  0  0  0  0
   21.3530   20.5511   24.2844 H   0  0  0  0  0  0  0  0  0  0  0  0
   21.5327   19.2433   22.5693 C   0  0  0  0  0  0  0  0  0  0  0  0
   22.3828   19.7986   22.1512 H   0  0  0  0  0  0  0  0  0  0  0  0
   21.9687   18.4522   23.1936 H   0  0  0  0  0  0  0  0  0  0  0  0
   20.7294   18.6038   21.4047 C   0  0  0  0  0  0  0  0  0  0  0  0
   21.4456   18.3015   20.6282 H   0  0  0  0  0  0  0  0  0  0  0  0
   20.0791   19.3485   20.9280 H   0  0  0  0  0  0  0  0  0  0  0  0
   19.9044   17.3481   21.7878 C   0  0  0  0  0  0  0  0  0  0  0  0
   19.4598   16.9355   20.8713 H   0  0  0  0  0  0  0  0  0  0  0  0
   20.5747   16.5686   22.1762 H   0  0  0  0  0  0  0  0  0  0  0  0
   18.7735   17.6078   22.8074 C   0  0  0  0  0  0  0  0  0  0  0  0
   18.1508   18.4594   22.5044 H   0  0  0  0  0  0  0  0  0  0  0  0
   18.1220   16.7280   22.8871 H   0  0  0  0  0  0  0  0  0  0  0  0
   19.1753   17.8032   23.8086 H   0  0  0  0  0  0  0  0  0  0  0  0
  1  2  1  0  0  0  0
  1  3  1  0  0  0  0
  1  4  1  0  0  0  0
  1  5  1  0  0  0  0
  5  6  1  0  0  0  0
  5  7  1  0  0  0  0
  5  8  1  0  0  0  0
  8  9  1  0  0  0  0
  8 10  1  0  0  0  0
  8 11  1  0  0  0  0
 11 12  1  0  0  0  0
 11 13  1  0  0  0  0
 11 14  1  0  0  0  0
 14 15  1  0  0  0  0
 14 16  1  0  0  0  0
 14 17  1  0  0  0  0
 17 18  1  0  0  0  0
 17 19  1  0  0  0  0
 17 20  1  0  0  0  0
M  END
> <VConfSearch Rank>
749

> <Conf_Id>
80

> <Delta U+W>
2.920

> <U+W>
-8.857

> <U>
49.434

> <W>
-58.292

> <W(PB)>
-60.170

> <W(SA)>
1.879

> <Valence>
3.798

> <Coulomb>
45.253

> <VdW>
0.384

> <VdW6>
-5.595

> <VdW12>
5.979

> <Bond>
0.198

> <Angle>
1.368

> <Pdih>
2.231

> <Idih>
0.000

> <Tether>
0.000

$$$$
VeraChem MOL file


 20 19  0  0  0  0  0  0  0  0999 V2000     
   19.5888   16.9467   22.4579 N   0  3  0  0  0  0  0  0  0  0  0  0
   19.6265   16.4142   23.3326 H   0  0  0  0  0  0  0  0  0  0  0  0
   19.0678   16.3761   21.7839 H   0  0  0  0  0  0  0  0  0  0  0  0
   20.5481   17.0219   22.1075 H   0  0  0  0  0  0  0  0  0  0  0  0
   18.9518   18.3090   22.6535 C   0  0  0  0  0  0  0  0  0  0  0  0
   17.9229   18.1457   22.9855 H   0  0  0  0  0  0  0  0  0  0  0  0
   18.9160   18.8058   21.6827 H   0  0  0  0  0  0  0  0  0  0  0  0
   19.6812   19.1962   23.6847 C   0  0  0  0  0  0  0  0  0  0  0  0
   19.0908   20.1043   23.8652 H   0  0  0  0  0  0  0  0  0  0  0  0
   19.7039   18.6578   24.6414 H   0  0  0  0  0  0  0  0  0  0  0  0
   21.1320   19.5876   23.2944 C   0  0  0  0  0  0  0  0  0  0  0  0
   21.6617   18.7291   22.8619 H   0  0  0  0  0  0  0  0  0  0  0  0
   21.6749   19.8306   24.2183 H   0  0  0  0  0  0  0  0  0  0  0  0
   21.2507   20.8129   22.3519 C   0  0  0  0  0  0  0  0  0  0  0  0
   20.8027   21.6944   22.8316 H   0  0  0  0  0  0  0  0  0  0  0  0
   22.3169   21.0473   22.2244 H   0  0  0  0  0  0  0  0  0  0  0  0
   20.6223   20.6133   20.9550 C   0  0  0  0  0  0  0  0  0  0  0  0
   19.5272   20.6022   21.0075 H   0  0  0  0  0  0  0  0  0  0  0  0
   20.9051   21.4378   20.2878 H   0  0  0  0  0  0  0  0  0  0  0  0
   20.9632   19.6774   20.4940 H   0  0  0  0  0  0  0  0  0  0  0  0
  1  2  1  0  0  0  0
  1  3  1  0  0  0  0
  1  4  1  0  0  0  0
  1  5  1  0  0  0  0
  5  6  1  0  0  0  0
  5  7  1  0  0  0  0
  5  8  1  0  0  0  0
  8  9  1  0  0  0  0
  8 10  1  0  0  0  0
  8 11  1  0  0  0  0
 11 12  1  0  0  0  0
 11 13  1  0  0  0  0
 11 14  1  0  0  0  0
 14 15  1  0  0  0  0
 14 16  1  0  0  0  0
 14 17  1  0  0  0  0
 17 18  1  0  0  0  0
 17 19  1  0  0  0  0
 17 20  1  0  0  0  0
M  END
> <VConfSearch Rank>
750

> <Conf_Id>
65

> <Delta U+W>
2.949

> <U+W>
-8.829

> <U>
49.435

> <W>
-58.263

> <W(PB)>
-60.125

> <W(SA)>
1.862

> <Valence>
3.797

> <Coulomb>
45.253

> <VdW>
0.384

> <VdW6>
-5.596

> <VdW12>
5.980

> <Bond>
0.198

> <Angle>
1.369

> <Pdih>
2.230

> <Idih>
0.000

> <Tether>
0.000

$$$$
VeraChem MOL file


 20 19  0  0  0  0  0  0  0  0999 V2000     
   20.4272   17.4558   21.6537 N   0  3  0  0  0  0  0  0  0  0  0  0
   20.7121   17.0711   20.7468 H   0  0  0  0  0  0  0  0  0  0  0  0
   21.1959   18.0426   21.9922 H   0  0  0  0  0  0  0  0  0  0  0  0
   20.3405   16.6644   22.2992 H   0  0  0  0  0  0  0  0  0  0  0  0
   19.1348   18.2424   21.5514 C   0  0  0  0  0  0  0  0  0  0  0  0
   18.3686   17.5520   21.1885 H   0  0  0  0  0  0  0  0  0  0  0  0
   19.2621   19.0306   20.8046 H   0  0  0  0  0  0  0  0  0  0  0  0
   18.6675   18.8563   22.8867 C   0  0  0  0  0  0  0  0  0  0  0  0
   17.5845   19.0235   22.8160 H   0  0  0  0  0  0  0  0  0  0  0  0
   18.8046   18.1294   23.6983 H   0  0  0  0  0  0  0  0  0  0  0  0
   19.3316   20.2085   23.2613 C   0  0  0  0  0  0  0  0  0  0  0  0
   18.8696   20.5530   24.1969 H   0  0  0  0  0  0  0  0  0  0  0  0
   19.0781   20.9706   22.5113 H   0  0  0  0  0  0  0  0  0  0  0  0
   20.8663   20.1610   23.4735 C   0  0  0  0  0  0  0  0  0  0  0  0
   21.1295   20.8575   24.2821 H   0  0  0  0  0  0  0  0  0  0  0  0
   21.1748   19.1681   23.8276 H   0  0  0  0  0  0  0  0  0  0  0  0
   21.6668   20.5735   22.2154 C   0  0  0  0  0  0  0  0  0  0  0  0
   21.4096   19.9704   21.3381 H   0  0  0  0  0  0  0  0  0  0  0  0
   21.4716   21.6235   21.9609 H   0  0  0  0  0  0  0  0  0  0  0  0
   22.7455   20.4720   22.3926 H   0  0  0  0  0  0  0  0  0  0  0  0
  1  2  1  0  0  0  0
  1  3  1  0  0  0  0
  1  4  1  0  0  0  0
  1  5  1  0  0  0  0
  5  6  1  0  0  0  0
  5  7  1  0  0  0  0
  5  8  1  0  0  0  0
  8  9  1  0  0  0  0
  8 10  1  0  0  0  0
  8 11  1  0  0  0  0
 11 12  1  0  0  0  0
 11 13  1  0  0  0  0
 11 14  1  0  0  0  0
 14 15  1  0  0  0  0
 14 16  1  0  0  0  0
 14 17  1  0  0  0  0
 17 18  1  0  0  0  0
 17 19  1  0  0  0  0
 17 20  1  0  0  0  0
M  END
> <VConfSearch Rank>
751

> <Conf_Id>
77

> <Delta U+W>
5.366

> <U+W>
-6.412

> <U>
51.542

> <W>
-57.954

> <W(PB)>
-59.811

> <W(SA)>
1.857

> <Valence>
5.347

> <Coulomb>
45.870

> <VdW>
0.325

> <VdW6>
-6.161

> <VdW12>
6.486

> <Bond>
0.201

> <Angle>
1.484

> <Pdih>
3.662

> <Idih>
0.000

> <Tether>
0.000

$$$$
VeraChem MOL file


 20 19  0  0  0  0  0  0  0  0999 V2000     
   21.8095   20.0549   21.9340 N   0  3  0  0  0  0  0  0  0  0  0  0
   22.0553   20.0046   20.9403 H   0  0  0  0  0  0  0  0  0  0  0  0
   20.8847   20.4913   21.9977 H   0  0  0  0  0  0  0  0  0  0  0  0
   22.4802   20.6931   22.3751 H   0  0  0  0  0  0  0  0  0  0  0  0
   21.8211   18.6860   22.5863 C   0  0  0  0  0  0  0  0  0  0  0  0
   21.6179   18.8045   23.6540 H   0  0  0  0  0  0  0  0  0  0  0  0
   22.8335   18.2881   22.4759 H   0  0  0  0  0  0  0  0  0  0  0  0
   20.8186   17.6895   21.9696 C   0  0  0  0  0  0  0  0  0  0  0  0
   20.8342   17.7759   20.8750 H   0  0  0  0  0  0  0  0  0  0  0  0
   21.1755   16.6755   22.1938 H   0  0  0  0  0  0  0  0  0  0  0  0
   19.3625   17.8056   22.4951 C   0  0  0  0  0  0  0  0  0  0  0  0
   19.3340   17.5847   23.5712 H   0  0  0  0  0  0  0  0  0  0  0  0
   18.7765   17.0085   22.0168 H   0  0  0  0  0  0  0  0  0  0  0  0
   18.6571   19.1561   22.2106 C   0  0  0  0  0  0  0  0  0  0  0  0
   19.0517   19.6098   21.2915 H   0  0  0  0  0  0  0  0  0  0  0  0
   17.5942   18.9603   22.0102 H   0  0  0  0  0  0  0  0  0  0  0  0
   18.7395   20.1465   23.3964 C   0  0  0  0  0  0  0  0  0  0  0  0
   18.2771   21.1063   23.1318 H   0  0  0  0  0  0  0  0  0  0  0  0
   18.2020   19.7504   24.2680 H   0  0  0  0  0  0  0  0  0  0  0  0
   19.7709   20.3422   23.7086 H   0  0  0  0  0  0  0  0  0  0  0  0
  1  2  1  0  0  0  0
  1  3  1  0  0  0  0
  1  4  1  0  0  0  0
  1  5  1  0  0  0  0
  5  6  1  0  0  0  0
  5  7  1  0  0  0  0
  5  8  1  0  0  0  0
  8  9  1  0  0  0  0
  8 10  1  0  0  0  0
  8 11  1  0  0  0  0
 11 12  1  0  0  0  0
 11 13  1  0  0  0  0
 11 14  1  0  0  0  0
 14 15  1  0  0  0  0
 14 16  1  0  0  0  0
 14 17  1  0  0  0  0
 17 18  1  0  0  0  0
 17 19  1  0  0  0  0
 17 20  1  0  0  0  0
M  END
> <VConfSearch Rank>
752

> <Conf_Id>
67

> <Delta U+W>
5.353

> <U+W>
-6.425

> <U>
51.541

> <W>
-57.966

> <W(PB)>
-59.821

> <W(SA)>
1.855

> <Valence>
5.347

> <Coulomb>
45.870

> <VdW>
0.325

> <VdW6>
-6.161

> <VdW12>
6.486

> <Bond>
0.201

> <Angle>
1.485

> <Pdih>
3.662

> <Idih>
0.000

> <Tether>
0.000

$$$$
VeraChem MOL file


 20 19  0  0  0  0  0  0  0  0999 V2000     
   22.6162   17.4974   23.7303 N   0  3  0  0  0  0  0  0  0  0  0  0
   22.3130   17.5174   24.7091 H   0  0  0  0  0  0  0  0  0  0  0  0
   23.0781   16.5941   23.5808 H   0  0  0  0  0  0  0  0  0  0  0  0
   23.3351   18.2199   23.6229 H   0  0  0  0  0  0  0  0  0  0  0  0
   21.4587   17.7031   22.7741 C   0  0  0  0  0  0  0  0  0  0  0  0
   20.7491   16.8845   22.9220 H   0  0  0  0  0  0  0  0  0  0  0  0
   21.8480   17.6398   21.7543 H   0  0  0  0  0  0  0  0  0  0  0  0
   20.7426   19.0511   22.9723 C   0  0  0  0  0  0  0  0  0  0  0  0
   20.3673   19.1171   24.0022 H   0  0  0  0  0  0  0  0  0  0  0  0
   21.4623   19.8698   22.8386 H   0  0  0  0  0  0  0  0  0  0  0  0
   19.5710   19.2210   21.9796 C   0  0  0  0  0  0  0  0  0  0  0  0
   18.8556   18.3974   22.1126 H   0  0  0  0  0  0  0  0  0  0  0  0
   19.9493   19.1493   20.9503 H   0  0  0  0  0  0  0  0  0  0  0  0
   18.8444   20.5713   22.1695 C   0  0  0  0  0  0  0  0  0  0  0  0
   18.4625   20.6463   23.1974 H   0  0  0  0  0  0  0  0  0  0  0  0
   19.5561   21.3981   22.0352 H   0  0  0  0  0  0  0  0  0  0  0  0
   17.6747   20.7366   21.1757 C   0  0  0  0  0  0  0  0  0  0  0  0
   16.9281   19.9428   21.3090 H   0  0  0  0  0  0  0  0  0  0  0  0
   17.1715   21.7005   21.3260 H   0  0  0  0  0  0  0  0  0  0  0  0
   18.0301   20.7007   20.1377 H   0  0  0  0  0  0  0  0  0  0  0  0
  1  2  1  0  0  0  0
  1  3  1  0  0  0  0
  1  4  1  0  0  0  0
  1  5  1  0  0  0  0
  5  6  1  0  0  0  0
  5  7  1  0  0  0  0
  5  8  1  0  0  0  0
  8  9  1  0  0  0  0
  8 10  1  0  0  0  0
  8 11  1  0  0  0  0
 11 12  1  0  0  0  0
 11 13  1  0  0  0  0
 11 14  1  0  0  0  0
 14 15  1  0  0  0  0
 14 16  1  0  0  0  0
 14 17  1  0  0  0  0
 17 18  1  0  0  0  0
 17 19  1  0  0  0  0
 17 20  1  0  0  0  0
M  END
> <VConfSearch Rank>
753

> <Conf_Id>
72

> <Delta U+W>
0.000

> <U+W>
-11.778

> <U>
45.772

> <W>
-57.550

> <W(PB)>
-59.511

> <W(SA)>
1.961

> <Valence>
1.299

> <Coulomb>
44.177

> <VdW>
0.297

> <VdW6>
-3.490

> <VdW12>
3.786

> <Bond>
0.096

> <Angle>
0.381

> <Pdih>
0.822

> <Idih>
0.000

> <Tether>
0.000

$$$$
VeraChem MOL file


 20 19  0  0  0  0  0  0  0  0999 V2000     
   20.0023   17.7302   25.1121 N   0  3  0  0  0  0  0  0  0  0  0  0
   20.9595   18.0205   25.3352 H   0  0  0  0  0  0  0  0  0  0  0  0
   19.3709   18.3745   25.5985 H   0  0  0  0  0  0  0  0  0  0  0  0
   19.8662   16.8056   25.5341 H   0  0  0  0  0  0  0  0  0  0  0  0
   19.7499   17.7099   23.6180 C   0  0  0  0  0  0  0  0  0  0  0  0
   18.7259   17.3637   23.4535 H   0  0  0  0  0  0  0  0  0  0  0  0
   20.4338   16.9838   23.1700 H   0  0  0  0  0  0  0  0  0  0  0  0
   19.9452   19.0839   22.9524 C   0  0  0  0  0  0  0  0  0  0  0  0
   19.2681   19.8135   23.4161 H   0  0  0  0  0  0  0  0  0  0  0  0
   20.9700   19.4292   23.1388 H   0  0  0  0  0  0  0  0  0  0  0  0
   19.6754   19.0168   21.4306 C   0  0  0  0  0  0  0  0  0  0  0  0
   18.6736   18.5973   21.2631 H   0  0  0  0  0  0  0  0  0  0  0  0
   20.3838   18.3213   20.9594 H   0  0  0  0  0  0  0  0  0  0  0  0
   19.7565   20.3936   20.7273 C   0  0  0  0  0  0  0  0  0  0  0  0
   19.4508   20.2725   19.6786 H   0  0  0  0  0  0  0  0  0  0  0  0
   19.0325   21.0856   21.1799 H   0  0  0  0  0  0  0  0  0  0  0  0
   21.1687   21.0211   20.7651 C   0  0  0  0  0  0  0  0  0  0  0  0
   21.9166   20.3369   20.3436 H   0  0  0  0  0  0  0  0  0  0  0  0
   21.1931   21.9477   20.1770 H   0  0  0  0  0  0  0  0  0  0  0  0
   21.4712   21.2732   21.7890 H   0  0  0  0  0  0  0  0  0  0  0  0
  1  2  1  0  0  0  0
  1  3  1  0  0  0  0
  1  4  1  0  0  0  0
  1  5  1  0  0  0  0
  5  6  1  0  0  0  0
  5  7  1  0  0  0  0
  5  8  1  0  0  0  0
  8  9  1  0  0  0  0
  8 10  1  0  0  0  0
  8 11  1  0  0  0  0
 11 12  1  0  0  0  0
 11 13  1  0  0  0  0
 11 14  1  0  0  0  0
 14 15  1  0  0  0  0
 14 16  1  0  0  0  0
 14 17  1  0  0  0  0
 17 18  1  0  0  0  0
 17 19  1  0  0  0  0
 17 20  1  0  0  0  0
M  END
> <VConfSearch Rank>
754

> <Conf_Id>
42

> <Delta U+W>
0.508

> <U+W>
-11.270

> <U>
46.486

> <W>
-57.756

> <W(PB)>
-59.705

> <W(SA)>
1.949

> <Valence>
1.806

> <Coulomb>
44.248

> <VdW>
0.433

> <VdW6>
-4.089

> <VdW12>
4.522

> <Bond>
0.131

> <Angle>
0.628

> <Pdih>
1.047

> <Idih>
0.000

> <Tether>
0.000

$$$$
VeraChem MOL file


 20 19  0  0  0  0  0  0  0  0999 V2000     
   21.0359   21.7892   23.3699 N   0  3  0  0  0  0  0  0  0  0  0  0
   20.4678   22.3343   22.7138 H   0  0  0  0  0  0  0  0  0  0  0  0
   20.4976   21.7065   24.2380 H   0  0  0  0  0  0  0  0  0  0  0  0
   21.8640   22.3540   23.5863 H   0  0  0  0  0  0  0  0  0  0  0  0
   21.4108   20.4342   22.8043 C   0  0  0  0  0  0  0  0  0  0  0  0
   22.0374   19.9228   23.5402 H   0  0  0  0  0  0  0  0  0  0  0  0
   22.0058   20.5982   21.9018 H   0  0  0  0  0  0  0  0  0  0  0  0
   20.1895   19.5599   22.4675 C   0  0  0  0  0  0  0  0  0  0  0  0
   19.5908   19.4168   23.3759 H   0  0  0  0  0  0  0  0  0  0  0  0
   19.5551   20.0840   21.7404 H   0  0  0  0  0  0  0  0  0  0  0  0
   20.6185   18.1895   21.8921 C   0  0  0  0  0  0  0  0  0  0  0  0
   21.2150   17.6454   22.6375 H   0  0  0  0  0  0  0  0  0  0  0  0
   21.2790   18.3547   21.0294 H   0  0  0  0  0  0  0  0  0  0  0  0
   19.4280   17.3095   21.4394 C   0  0  0  0  0  0  0  0  0  0  0  0
   18.8421   17.8405   20.6760 H   0  0  0  0  0  0  0  0  0  0  0  0
   19.8221   16.4073   20.9508 H   0  0  0  0  0  0  0  0  0  0  0  0
   18.5022   16.8824   22.6013 C   0  0  0  0  0  0  0  0  0  0  0  0
   17.9888   17.7439   23.0459 H   0  0  0  0  0  0  0  0  0  0  0  0
   17.7308   16.1887   22.2426 H   0  0  0  0  0  0  0  0  0  0  0  0
   19.0691   16.3737   23.3917 H   0  0  0  0  0  0  0  0  0  0  0  0
  1  2  1  0  0  0  0
  1  3  1  0  0  0  0
  1  4  1  0  0  0  0
  1  5  1  0  0  0  0
  5  6  1  0  0  0  0
  5  7  1  0  0  0  0
  5  8  1  0  0  0  0
  8  9  1  0  0  0  0
  8 10  1  0  0  0  0
  8 11  1  0  0  0  0
 11 12  1  0  0  0  0
 11 13  1  0  0  0  0
 11 14  1  0  0  0  0
 14 15  1  0  0  0  0
 14 16  1  0  0  0  0
 14 17  1  0  0  0  0
 17 18  1  0  0  0  0
 17 19  1  0  0  0  0
 17 20  1  0  0  0  0
M  END
> <VConfSearch Rank>
755

> <Conf_Id>
41

> <Delta U+W>
0.515

> <U+W>
-11.263

> <U>
46.486

> <W>
-57.749

> <W(PB)>
-59.685

> <W(SA)>
1.936

> <Valence>
1.806

> <Coulomb>
44.248

> <VdW>
0.433

> <VdW6>
-4.089

> <VdW12>
4.522

> <Bond>
0.131

> <Angle>
0.628

> <Pdih>
1.047

> <Idih>
0.000

> <Tether>
0.000

$$$$
VeraChem MOL file


 20 19  0  0  0  0  0  0  0  0999 V2000     
   20.9184   19.3367   19.8150 N   0  3  0  0  0  0  0  0  0  0  0  0
   21.3727   19.8379   19.0444 H   0  0  0  0  0  0  0  0  0  0  0  0
   21.6123   18.6887   20.1992 H   0  0  0  0  0  0  0  0  0  0  0  0
   20.1710   18.7701   19.4020 H   0  0  0  0  0  0  0  0  0  0  0  0
   20.3884   20.2884   20.8702 C   0  0  0  0  0  0  0  0  0  0  0  0
   19.6913   20.9722   20.3782 H   0  0  0  0  0  0  0  0  0  0  0  0
   21.2283   20.8756   21.2513 H   0  0  0  0  0  0  0  0  0  0  0  0
   19.6724   19.5869   22.0412 C   0  0  0  0  0  0  0  0  0  0  0  0
   19.2288   20.3614   22.6792 H   0  0  0  0  0  0  0  0  0  0  0  0
   18.8403   18.9843   21.6537 H   0  0  0  0  0  0  0  0  0  0  0  0
   20.6259   18.6997   22.8806 C   0  0  0  0  0  0  0  0  0  0  0  0
   21.4432   19.3137   23.2838 H   0  0  0  0  0  0  0  0  0  0  0  0
   21.0949   17.9498   22.2300 H   0  0  0  0  0  0  0  0  0  0  0  0
   19.9169   17.9577   24.0398 C   0  0  0  0  0  0  0  0  0  0  0  0
   19.1070   17.3313   23.6402 H   0  0  0  0  0  0  0  0  0  0  0  0
   20.6343   17.2692   24.5081 H   0  0  0  0  0  0  0  0  0  0  0  0
   19.3553   18.9038   25.1258 C   0  0  0  0  0  0  0  0  0  0  0  0
   18.5430   19.5295   24.7360 H   0  0  0  0  0  0  0  0  0  0  0  0
   18.9505   18.3256   25.9665 H   0  0  0  0  0  0  0  0  0  0  0  0
   20.1397   19.5631   25.5196 H   0  0  0  0  0  0  0  0  0  0  0  0
  1  2  1  0  0  0  0
  1  3  1  0  0  0  0
  1  4  1  0  0  0  0
  1  5  1  0  0  0  0
  5  6  1  0  0  0  0
  5  7  1  0  0  0  0
  5  8  1  0  0  0  0
  8  9  1  0  0  0  0
  8 10  1  0  0  0  0
  8 11  1  0  0  0  0
 11 12  1  0  0  0  0
 11 13  1  0  0  0  0
 11 14  1  0  0  0  0
 14 15  1  0  0  0  0
 14 16  1  0  0  0  0
 14 17  1  0  0  0  0
 17 18  1  0  0  0  0
 17 19  1  0  0  0  0
 17 20  1  0  0  0  0
M  END
> <VConfSearch Rank>
756

> <Conf_Id>
33

> <Delta U+W>
0.703

> <U+W>
-11.075

> <U>
47.080

> <W>
-58.154

> <W(PB)>
-60.053

> <W(SA)>
1.899

> <Valence>
1.943

> <Coulomb>
44.572

> <VdW>
0.565

> <VdW6>
-4.575

> <VdW12>
5.139

> <Bond>
0.158

> <Angle>
0.700

> <Pdih>
1.085

> <Idih>
0.000

> <Tether>
0.000

$$$$
VeraChem MOL file


 20 19  0  0  0  0  0  0  0  0999 V2000     
   18.6524   16.9732   23.3494 N   0  3  0  0  0  0  0  0  0  0  0  0
   18.0121   16.5340   24.0192 H   0  0  0  0  0  0  0  0  0  0  0  0
   18.4791   16.5339   22.4400 H   0  0  0  0  0  0  0  0  0  0  0  0
   19.6025   16.7171   23.6333 H   0  0  0  0  0  0  0  0  0  0  0  0
   18.4648   18.4773   23.2952 C   0  0  0  0  0  0  0  0  0  0  0  0
   18.6407   18.8783   24.2970 H   0  0  0  0  0  0  0  0  0  0  0  0
   17.4218   18.6708   23.0301 H   0  0  0  0  0  0  0  0  0  0  0  0
   19.3871   19.1858   22.2836 C   0  0  0  0  0  0  0  0  0  0  0  0
   19.2206   18.7689   21.2815 H   0  0  0  0  0  0  0  0  0  0  0  0
   19.0913   20.2413   22.2377 H   0  0  0  0  0  0  0  0  0  0  0  0
   20.8857   19.0778   22.6624 C   0  0  0  0  0  0  0  0  0  0  0  0
   21.1671   18.0195   22.7426 H   0  0  0  0  0  0  0  0  0  0  0  0
   21.0485   19.5171   23.6563 H   0  0  0  0  0  0  0  0  0  0  0  0
   21.8306   19.7526   21.6382 C   0  0  0  0  0  0  0  0  0  0  0  0
   22.8699   19.5324   21.9199 H   0  0  0  0  0  0  0  0  0  0  0  0
   21.6813   19.3070   20.6447 H   0  0  0  0  0  0  0  0  0  0  0  0
   21.6536   21.2859   21.5527 C   0  0  0  0  0  0  0  0  0  0  0  0
   21.7669   21.7525   22.5398 H   0  0  0  0  0  0  0  0  0  0  0  0
   22.4090   21.7229   20.8869 H   0  0  0  0  0  0  0  0  0  0  0  0
   20.6682   21.5575   21.1545 H   0  0  0  0  0  0  0  0  0  0  0  0
  1  2  1  0  0  0  0
  1  3  1  0  0  0  0
  1  4  1  0  0  0  0
  1  5  1  0  0  0  0
  5  6  1  0  0  0  0
  5  7  1  0  0  0  0
  5  8  1  0  0  0  0
  8  9  1  0  0  0  0
  8 10  1  0  0  0  0
  8 11  1  0  0  0  0
 11 12  1  0  0  0  0
 11 13  1  0  0  0  0
 11 14  1  0  0  0  0
 14 15  1  0  0  0  0
 14 16  1  0  0  0  0
 14 17  1  0  0  0  0
 17 18  1  0  0  0  0
 17 19  1  0  0  0  0
 17 20  1  0  0  0  0
M  END
> <VConfSearch Rank>
757

> <Conf_Id>
24

> <Delta U+W>
0.847

> <U+W>
-10.931

> <U>
47.080

> <W>
-58.011

> <W(PB)>
-59.914

> <W(SA)>
1.903

> <Valence>
1.943

> <Coulomb>
44.572

> <VdW>
0.565

> <VdW6>
-4.575

> <VdW12>
5.140

> <Bond>
0.158

> <Angle>
0.700

> <Pdih>
1.085

> <Idih>
0.000

> <Tether>
0.000

$$$$
VeraChem MOL file


 20 19  0  0  0  0  0  0  0  0999 V2000     
   22.1599   18.8563   24.3099 N   0  3  0  0  0  0  0  0  0  0  0  0
   22.9121   18.1604   24.2717 H   0  0  0  0  0  0  0  0  0  0  0  0
   22.5766   19.7586   24.0599 H   0  0  0  0  0  0  0  0  0  0  0  0
   21.8652   18.9216   25.2893 H   0  0  0  0  0  0  0  0  0  0  0  0
   21.0081   18.4913   23.3953 C   0  0  0  0  0  0  0  0  0  0  0  0
   20.6329   17.5104   23.6992 H   0  0  0  0  0  0  0  0  0  0  0  0
   21.3999   18.4098   22.3781 H   0  0  0  0  0  0  0  0  0  0  0  0
   19.8601   19.5179   23.4285 C   0  0  0  0  0  0  0  0  0  0  0  0
   19.5020   19.6227   24.4613 H   0  0  0  0  0  0  0  0  0  0  0  0
   20.2377   20.5049   23.1325 H   0  0  0  0  0  0  0  0  0  0  0  0
   18.6682   19.1137   22.5253 C   0  0  0  0  0  0  0  0  0  0  0  0
   17.8846   19.8797   22.6055 H   0  0  0  0  0  0  0  0  0  0  0  0
   18.2248   18.1864   22.9139 H   0  0  0  0  0  0  0  0  0  0  0  0
   19.0246   18.9078   21.0307 C   0  0  0  0  0  0  0  0  0  0  0  0
   19.7294   18.0725   20.9201 H   0  0  0  0  0  0  0  0  0  0  0  0
   18.1150   18.6074   20.4919 H   0  0  0  0  0  0  0  0  0  0  0  0
   19.6068   20.1717   20.3580 C   0  0  0  0  0  0  0  0  0  0  0  0
   19.7541   20.0022   19.2836 H   0  0  0  0  0  0  0  0  0  0  0  0
   18.9294   21.0278   20.4728 H   0  0  0  0  0  0  0  0  0  0  0  0
   20.5801   20.4433   20.7853 H   0  0  0  0  0  0  0  0  0  0  0  0
  1  2  1  0  0  0  0
  1  3  1  0  0  0  0
  1  4  1  0  0  0  0
  1  5  1  0  0  0  0
  5  6  1  0  0  0  0
  5  7  1  0  0  0  0
  5  8  1  0  0  0  0
  8  9  1  0  0  0  0
  8 10  1  0  0  0  0
  8 11  1  0  0  0  0
 11 12  1  0  0  0  0
 11 13  1  0  0  0  0
 11 14  1  0  0  0  0
 14 15  1  0  0  0  0
 14 16  1  0  0  0  0
 14 17  1  0  0  0  0
 17 18  1  0  0  0  0
 17 19  1  0  0  0  0
 17 20  1  0  0  0  0
M  END
> <VConfSearch Rank>
758

> <Conf_Id>
64

> <Delta U+W>
0.707

> <U+W>
-11.070

> <U>
47.077

> <W>
-58.148

> <W(PB)>
-60.054

> <W(SA)>
1.906

> <Valence>
2.039

> <Coulomb>
44.655

> <VdW>
0.383

> <VdW6>
-4.912

> <VdW12>
5.295

> <Bond>
0.159

> <Angle>
0.856

> <Pdih>
1.024

> <Idih>
0.000

> <Tether>
0.000

$$$$
VeraChem MOL file


 20 19  0  0  0  0  0  0  0  0999 V2000     
   21.1582   21.0717   20.8822 N   0  3  0  0  0  0  0  0  0  0  0  0
   20.5069   21.8511   20.7457 H   0  0  0  0  0  0  0  0  0  0  0  0
   21.8295   21.3623   21.5999 H   0  0  0  0  0  0  0  0  0  0  0  0
   21.6839   20.9673   20.0079 H   0  0  0  0  0  0  0  0  0  0  0  0
   20.4394   19.7933   21.2632 C   0  0  0  0  0  0  0  0  0  0  0  0
   21.1886   19.0034   21.3618 H   0  0  0  0  0  0  0  0  0  0  0  0
   19.7650   19.5277   20.4447 H   0  0  0  0  0  0  0  0  0  0  0  0
   19.6396   19.9163   22.5739 C   0  0  0  0  0  0  0  0  0  0  0  0
   20.3141   20.1918   23.3946 H   0  0  0  0  0  0  0  0  0  0  0  0
   18.9188   20.7393   22.4787 H   0  0  0  0  0  0  0  0  0  0  0  0
   18.8720   18.6191   22.9318 C   0  0  0  0  0  0  0  0  0  0  0  0
   18.1141   18.4287   22.1592 H   0  0  0  0  0  0  0  0  0  0  0  0
   18.3167   18.7801   23.8661 H   0  0  0  0  0  0  0  0  0  0  0  0
   19.7601   17.3573   23.0808 C   0  0  0  0  0  0  0  0  0  0  0  0
   19.1137   16.4998   23.3147 H   0  0  0  0  0  0  0  0  0  0  0  0
   20.2430   17.1177   22.1237 H   0  0  0  0  0  0  0  0  0  0  0  0
   20.8328   17.4879   24.1859 C   0  0  0  0  0  0  0  0  0  0  0  0
   20.3770   17.7478   25.1501 H   0  0  0  0  0  0  0  0  0  0  0  0
   21.3704   16.5395   24.3139 H   0  0  0  0  0  0  0  0  0  0  0  0
   21.5752   18.2566   23.9377 H   0  0  0  0  0  0  0  0  0  0  0  0
  1  2  1  0  0  0  0
  1  3  1  0  0  0  0
  1  4  1  0  0  0  0
  1  5  1  0  0  0  0
  5  6  1  0  0  0  0
  5  7  1  0  0  0  0
  5  8  1  0  0  0  0
  8  9  1  0  0  0  0
  8 10  1  0  0  0  0
  8 11  1  0  0  0  0
 11 12  1  0  0  0  0
 11 13  1  0  0  0  0
 11 14  1  0  0  0  0
 14 15  1  0  0  0  0
 14 16  1  0  0  0  0
 14 17  1  0  0  0  0
 17 18  1  0  0  0  0
 17 19  1  0  0  0  0
 17 20  1  0  0  0  0
M  END
> <VConfSearch Rank>
759

> <Conf_Id>
22

> <Delta U+W>
0.731

> <U+W>
-11.047

> <U>
47.078

> <W>
-58.125

> <W(PB)>
-60.031

> <W(SA)>
1.906

> <Valence>
2.039

> <Coulomb>
44.655

> <VdW>
0.383

> <VdW6>
-4.913

> <VdW12>
5.296

> <Bond>
0.159

> <Angle>
0.856

> <Pdih>
1.024

> <Idih>
0.000

> <Tether>
0.000

$$$$
VeraChem MOL file


 20 19  0  0  0  0  0  0  0  0999 V2000     
   18.6146   17.2657   23.6709 N   0  3  0  0  0  0  0  0  0  0  0  0
   18.9830   16.4105   23.2430 H   0  0  0  0  0  0  0  0  0  0  0  0
   18.7685   17.1873   24.6811 H   0  0  0  0  0  0  0  0  0  0  0  0
   17.5999   17.2587   23.5236 H   0  0  0  0  0  0  0  0  0  0  0  0
   19.2591   18.5104   23.0948 C   0  0  0  0  0  0  0  0  0  0  0  0
   18.8023   19.3807   23.5737 H   0  0  0  0  0  0  0  0  0  0  0  0
   19.0281   18.5396   22.0275 H   0  0  0  0  0  0  0  0  0  0  0  0
   20.7846   18.5487   23.2948 C   0  0  0  0  0  0  0  0  0  0  0  0
   21.0049   18.3979   24.3600 H   0  0  0  0  0  0  0  0  0  0  0  0
   21.2445   17.7065   22.7610 H   0  0  0  0  0  0  0  0  0  0  0  0
   21.4448   19.8753   22.8406 C   0  0  0  0  0  0  0  0  0  0  0  0
   22.5081   19.8246   23.1131 H   0  0  0  0  0  0  0  0  0  0  0  0
   21.0322   20.7187   23.4114 H   0  0  0  0  0  0  0  0  0  0  0  0
   21.3535   20.1628   21.3193 C   0  0  0  0  0  0  0  0  0  0  0  0
   22.2188   20.7767   21.0321 H   0  0  0  0  0  0  0  0  0  0  0  0
   21.4444   19.2282   20.7485 H   0  0  0  0  0  0  0  0  0  0  0  0
   20.0740   20.9248   20.9009 C   0  0  0  0  0  0  0  0  0  0  0  0
   19.1658   20.3375   21.0713 H   0  0  0  0  0  0  0  0  0  0  0  0
   19.9787   21.8680   21.4543 H   0  0  0  0  0  0  0  0  0  0  0  0
   20.1087   21.1702   19.8315 H   0  0  0  0  0  0  0  0  0  0  0  0
  1  2  1  0  0  0  0
  1  3  1  0  0  0  0
  1  4  1  0  0  0  0
  1  5  1  0  0  0  0
  5  6  1  0  0  0  0
  5  7  1  0  0  0  0
  5  8  1  0  0  0  0
  8  9  1  0  0  0  0
  8 10  1  0  0  0  0
  8 11  1  0  0  0  0
 11 12  1  0  0  0  0
 11 13  1  0  0  0  0
 11 14  1  0  0  0  0
 14 15  1  0  0  0  0
 14 16  1  0  0  0  0
 14 17  1  0  0  0  0
 17 18  1  0  0  0  0
 17 19  1  0  0  0  0
 17 20  1  0  0  0  0
M  END
> <VConfSearch Rank>
760

> <Conf_Id>
61

> <Delta U+W>
2.669

> <U+W>
-9.108

> <U>
48.916

> <W>
-58.025

> <W(PB)>
-59.935

> <W(SA)>
1.911

> <Valence>
3.785

> <Coulomb>
44.716

> <VdW>
0.415

> <VdW6>
-4.836

> <VdW12>
5.251

> <Bond>
0.175

> <Angle>
1.195

> <Pdih>
2.415

> <Idih>
0.000

> <Tether>
0.000

$$$$
VeraChem MOL file


 20 19  0  0  0  0  0  0  0  0999 V2000     
   18.9372   18.5762   24.3245 N   0  3  0  0  0  0  0  0  0  0  0  0
   18.9069   18.6806   25.3442 H   0  0  0  0  0  0  0  0  0  0  0  0
   18.1536   17.9687   24.0653 H   0  0  0  0  0  0  0  0  0  0  0  0
   19.7982   18.0712   24.0995 H   0  0  0  0  0  0  0  0  0  0  0  0
   18.8659   19.9176   23.6202 C   0  0  0  0  0  0  0  0  0  0  0  0
   19.6891   20.5428   23.9765 H   0  0  0  0  0  0  0  0  0  0  0  0
   17.9275   20.3880   23.9264 H   0  0  0  0  0  0  0  0  0  0  0  0
   18.9029   19.8304   22.0799 C   0  0  0  0  0  0  0  0  0  0  0  0
   18.2656   19.0058   21.7340 H   0  0  0  0  0  0  0  0  0  0  0  0
   18.4490   20.7481   21.6828 H   0  0  0  0  0  0  0  0  0  0  0  0
   20.3250   19.7046   21.4752 C   0  0  0  0  0  0  0  0  0  0  0  0
   20.9317   20.5673   21.7837 H   0  0  0  0  0  0  0  0  0  0  0  0
   20.2381   19.7681   20.3817 H   0  0  0  0  0  0  0  0  0  0  0  0
   21.0646   18.3966   21.8420 C   0  0  0  0  0  0  0  0  0  0  0  0
   21.2959   18.3834   22.9145 H   0  0  0  0  0  0  0  0  0  0  0  0
   20.4189   17.5315   21.6353 H   0  0  0  0  0  0  0  0  0  0  0  0
   22.3832   18.2488   21.0531 C   0  0  0  0  0  0  0  0  0  0  0  0
   22.9000   17.3213   21.3318 H   0  0  0  0  0  0  0  0  0  0  0  0
   22.1960   18.2171   19.9718 H   0  0  0  0  0  0  0  0  0  0  0  0
   23.0619   19.0870   21.2580 H   0  0  0  0  0  0  0  0  0  0  0  0
  1  2  1  0  0  0  0
  1  3  1  0  0  0  0
  1  4  1  0  0  0  0
  1  5  1  0  0  0  0
  5  6  1  0  0  0  0
  5  7  1  0  0  0  0
  5  8  1  0  0  0  0
  8  9  1  0  0  0  0
  8 10  1  0  0  0  0
  8 11  1  0  0  0  0
 11 12  1  0  0  0  0
 11 13  1  0  0  0  0
 11 14  1  0  0  0  0
 14 15  1  0  0  0  0
 14 16  1  0  0  0  0
 14 17  1  0  0  0  0
 17 18  1  0  0  0  0
 17 19  1  0  0  0  0
 17 20  1  0  0  0  0
M  END
> <VConfSearch Rank>
761

> <Conf_Id>
69

> <Delta U+W>
2.811

> <U+W>
-8.967

> <U>
49.216

> <W>
-58.183

> <W(PB)>
-60.064

> <W(SA)>
1.881

> <Valence>
2.929

> <Coulomb>
46.006

> <VdW>
0.281

> <VdW6>
-4.909

> <VdW12>
5.190

> <Bond>
0.156

> <Angle>
0.974

> <Pdih>
1.799

> <Idih>
0.000

> <Tether>
0.000

$$$$
VeraChem MOL file


 20 19  0  0  0  0  0  0  0  0999 V2000     
   19.5094   18.6968   20.2525 N   0  3  0  0  0  0  0  0  0  0  0  0
   19.5871   17.9566   20.9547 H   0  0  0  0  0  0  0  0  0  0  0  0
   18.5114   18.8974   20.1335 H   0  0  0  0  0  0  0  0  0  0  0  0
   19.8413   18.3057   19.3645 H   0  0  0  0  0  0  0  0  0  0  0  0
   20.2893   19.9366   20.6466 C   0  0  0  0  0  0  0  0  0  0  0  0
   20.1606   20.6631   19.8396 H   0  0  0  0  0  0  0  0  0  0  0  0
   21.3501   19.6782   20.7024 H   0  0  0  0  0  0  0  0  0  0  0  0
   19.8357   20.5782   21.9748 C   0  0  0  0  0  0  0  0  0  0  0  0
   20.1480   21.6309   21.9605 H   0  0  0  0  0  0  0  0  0  0  0  0
   18.7391   20.5908   22.0317 H   0  0  0  0  0  0  0  0  0  0  0  0
   20.4354   19.9228   23.2454 C   0  0  0  0  0  0  0  0  0  0  0  0
   20.1397   20.5276   24.1138 H   0  0  0  0  0  0  0  0  0  0  0  0
   21.5322   19.9709   23.1992 H   0  0  0  0  0  0  0  0  0  0  0  0
   19.9929   18.4597   23.4821 C   0  0  0  0  0  0  0  0  0  0  0  0
   18.8980   18.3860   23.4224 H   0  0  0  0  0  0  0  0  0  0  0  0
   20.4078   17.8103   22.7011 H   0  0  0  0  0  0  0  0  0  0  0  0
   20.4649   17.9385   24.8564 C   0  0  0  0  0  0  0  0  0  0  0  0
   20.0405   18.5365   25.6735 H   0  0  0  0  0  0  0  0  0  0  0  0
   20.1515   16.8969   25.0047 H   0  0  0  0  0  0  0  0  0  0  0  0
   21.5591   17.9758   24.9383 H   0  0  0  0  0  0  0  0  0  0  0  0
  1  2  1  0  0  0  0
  1  3  1  0  0  0  0
  1  4  1  0  0  0  0
  1  5  1  0  0  0  0
  5  6  1  0  0  0  0
  5  7  1  0  0  0  0
  5  8  1  0  0  0  0
  8  9  1  0  0  0  0
  8 10  1  0  0  0  0
  8 11  1  0  0  0  0
 11 12  1  0  0  0  0
 11 13  1  0  0  0  0
 11 14  1  0  0  0  0
 14 15  1  0  0  0  0
 14 16  1  0  0  0  0
 14 17  1  0  0  0  0
 17 18  1  0  0  0  0
 17 19  1  0  0  0  0
 17 20  1  0  0  0  0
M  END
> <VConfSearch Rank>
762

> <Conf_Id>
26

> <Delta U+W>
2.809

> <U+W>
-8.969

> <U>
49.216

> <W>
-58.185

> <W(PB)>
-60.088

> <W(SA)>
1.903

> <Valence>
2.929

> <Coulomb>
46.006

> <VdW>
0.281

> <VdW6>
-4.909

> <VdW12>
5.190

> <Bond>
0.156

> <Angle>
0.974

> <Pdih>
1.799

> <Idih>
0.000

> <Tether>
0.000

$$$$
VeraChem MOL file


 20 19  0  0  0  0  0  0  0  0999 V2000     
   21.8001   19.6420   20.7759 N   0  3  0  0  0  0  0  0  0  0  0  0
   20.9413   20.1216   20.4907 H   0  0  0  0  0  0  0  0  0  0  0  0
   22.4935   20.3652   20.9910 H   0  0  0  0  0  0  0  0  0  0  0  0
   22.1457   19.1315   19.9566 H   0  0  0  0  0  0  0  0  0  0  0  0
   21.5625   18.7200   21.9559 C   0  0  0  0  0  0  0  0  0  0  0  0
   22.5083   18.2213   22.1846 H   0  0  0  0  0  0  0  0  0  0  0  0
   20.8419   17.9566   21.6511 H   0  0  0  0  0  0  0  0  0  0  0  0
   21.0490   19.4460   23.2159 C   0  0  0  0  0  0  0  0  0  0  0  0
   20.9784   18.7217   24.0374 H   0  0  0  0  0  0  0  0  0  0  0  0
   21.7951   20.1865   23.5330 H   0  0  0  0  0  0  0  0  0  0  0  0
   19.6801   20.1506   23.0239 C   0  0  0  0  0  0  0  0  0  0  0  0
   19.7961   20.9837   22.3177 H   0  0  0  0  0  0  0  0  0  0  0  0
   19.3816   20.6087   23.9768 H   0  0  0  0  0  0  0  0  0  0  0  0
   18.5376   19.2276   22.5281 C   0  0  0  0  0  0  0  0  0  0  0  0
   17.6270   19.8310   22.4069 H   0  0  0  0  0  0  0  0  0  0  0  0
   18.7729   18.8333   21.5303 H   0  0  0  0  0  0  0  0  0  0  0  0
   18.2341   18.0568   23.4904 C   0  0  0  0  0  0  0  0  0  0  0  0
   18.0116   18.4237   24.5007 H   0  0  0  0  0  0  0  0  0  0  0  0
   17.3631   17.4876   23.1407 H   0  0  0  0  0  0  0  0  0  0  0  0
   19.0790   17.3599   23.5558 H   0  0  0  0  0  0  0  0  0  0  0  0
  1  2  1  0  0  0  0
  1  3  1  0  0  0  0
  1  4  1  0  0  0  0
  1  5  1  0  0  0  0
  5  6  1  0  0  0  0
  5  7  1  0  0  0  0
  5  8  1  0  0  0  0
  8  9  1  0  0  0  0
  8 10  1  0  0  0  0
  8 11  1  0  0  0  0
 11 12  1  0  0  0  0
 11 13  1  0  0  0  0
 11 14  1  0  0  0  0
 14 15  1  0  0  0  0
 14 16  1  0  0  0  0
 14 17  1  0  0  0  0
 17 18  1  0  0  0  0
 17 19  1  0  0  0  0
 17 20  1  0  0  0  0
M  END
> <VConfSearch Rank>
763

> <Conf_Id>
2

> <Delta U+W>
0.994

> <U+W>
-10.784

> <U>
47.562

> <W>
-58.346

> <W(PB)>
-60.221

> <W(SA)>
1.875

> <Valence>
2.149

> <Coulomb>
45.034

> <VdW>
0.378

> <VdW6>
-5.599

> <VdW12>
5.977

> <Bond>
0.185

> <Angle>
0.935

> <Pdih>
1.028

> <Idih>
0.000

> <Tether>
0.000

$$$$
VeraChem MOL file


 20 19  0  0  0  0  0  0  0  0999 V2000     
   18.4461   20.6739   23.0483 N   0  3  0  0  0  0  0  0  0  0  0  0
   18.3840   20.9578   24.0309 H   0  0  0  0  0  0  0  0  0  0  0  0
   19.2147   21.2043   22.6280 H   0  0  0  0  0  0  0  0  0  0  0  0
   17.5817   20.9847   22.5926 H   0  0  0  0  0  0  0  0  0  0  0  0
   18.6524   19.1785   22.9055 C   0  0  0  0  0  0  0  0  0  0  0  0
   18.6767   18.9390   21.8392 H   0  0  0  0  0  0  0  0  0  0  0  0
   17.7850   18.6791   23.3455 H   0  0  0  0  0  0  0  0  0  0  0  0
   19.9381   18.6629   23.5834 C   0  0  0  0  0  0  0  0  0  0  0  0
   19.8883   18.8783   24.6590 H   0  0  0  0  0  0  0  0  0  0  0  0
   19.9687   17.5691   23.4984 H   0  0  0  0  0  0  0  0  0  0  0  0
   21.2434   19.2671   23.0018 C   0  0  0  0  0  0  0  0  0  0  0  0
   22.1021   18.8189   23.5205 H   0  0  0  0  0  0  0  0  0  0  0  0
   21.2829   20.3396   23.2350 H   0  0  0  0  0  0  0  0  0  0  0  0
   21.4226   19.0786   21.4736 C   0  0  0  0  0  0  0  0  0  0  0  0
   20.6251   19.6025   20.9296 H   0  0  0  0  0  0  0  0  0  0  0  0
   22.3622   19.5602   21.1687 H   0  0  0  0  0  0  0  0  0  0  0  0
   21.4596   17.5958   21.0390 C   0  0  0  0  0  0  0  0  0  0  0  0
   20.4982   17.0991   21.2195 H   0  0  0  0  0  0  0  0  0  0  0  0
   21.6765   17.5149   19.9660 H   0  0  0  0  0  0  0  0  0  0  0  0
   22.2389   17.0448   21.5812 H   0  0  0  0  0  0  0  0  0  0  0  0
  1  2  1  0  0  0  0
  1  3  1  0  0  0  0
  1  4  1  0  0  0  0
  1  5  1  0  0  0  0
  5  6  1  0  0  0  0
  5  7  1  0  0  0  0
  5  8  1  0  0  0  0
  8  9  1  0  0  0  0
  8 10  1  0  0  0  0
  8 11  1  0  0  0  0
 11 12  1  0  0  0  0
 11 13  1  0  0  0  0
 11 14  1  0  0  0  0
 14 15  1  0  0  0  0
 14 16  1  0  0  0  0
 14 17  1  0  0  0  0
 17 18  1  0  0  0  0
 17 19  1  0  0  0  0
 17 20  1  0  0  0  0
M  END
> <VConfSearch Rank>
764

> <Conf_Id>
1

> <Delta U+W>
1.032

> <U+W>
-10.746

> <U>
47.562

> <W>
-58.308

> <W(PB)>
-60.184

> <W(SA)>
1.877

> <Valence>
2.149

> <Coulomb>
45.035

> <VdW>
0.378

> <VdW6>
-5.599

> <VdW12>
5.978

> <Bond>
0.185

> <Angle>
0.935

> <Pdih>
1.028

> <Idih>
0.000

> <Tether>
0.000

$$$$
VeraChem MOL file


 20 19  0  0  0  0  0  0  0  0999 V2000     
   19.1554   18.7183   24.5171 N   0  3  0  0  0  0  0  0  0  0  0  0
   18.6227   19.4789   24.9505 H   0  0  0  0  0  0  0  0  0  0  0  0
   18.5758   18.3319   23.7666 H   0  0  0  0  0  0  0  0  0  0  0  0
   19.2565   17.9840   25.2256 H   0  0  0  0  0  0  0  0  0  0  0  0
   20.5006   19.1933   24.0026 C   0  0  0  0  0  0  0  0  0  0  0  0
   21.0239   18.3318   23.5849 H   0  0  0  0  0  0  0  0  0  0  0  0
   21.0738   19.5499   24.8627 H   0  0  0  0  0  0  0  0  0  0  0  0
   20.4042   20.3232   22.9554 C   0  0  0  0  0  0  0  0  0  0  0  0
   19.8642   21.1640   23.4107 H   0  0  0  0  0  0  0  0  0  0  0  0
   21.4114   20.6989   22.7320 H   0  0  0  0  0  0  0  0  0  0  0  0
   19.6920   19.9257   21.6344 C   0  0  0  0  0  0  0  0  0  0  0  0
   19.3119   20.8448   21.1674 H   0  0  0  0  0  0  0  0  0  0  0  0
   18.8040   19.3148   21.8416 H   0  0  0  0  0  0  0  0  0  0  0  0
   20.5923   19.2147   20.5912 C   0  0  0  0  0  0  0  0  0  0  0  0
   20.0063   19.0694   19.6728 H   0  0  0  0  0  0  0  0  0  0  0  0
   21.4293   19.8713   20.3151 H   0  0  0  0  0  0  0  0  0  0  0  0
   21.1424   17.8442   21.0439 C   0  0  0  0  0  0  0  0  0  0  0  0
   20.3423   17.2024   21.4348 H   0  0  0  0  0  0  0  0  0  0  0  0
   21.6080   17.3216   20.1983 H   0  0  0  0  0  0  0  0  0  0  0  0
   21.9122   17.9579   21.8162 H   0  0  0  0  0  0  0  0  0  0  0  0
  1  2  1  0  0  0  0
  1  3  1  0  0  0  0
  1  4  1  0  0  0  0
  1  5  1  0  0  0  0
  5  6  1  0  0  0  0
  5  7  1  0  0  0  0
  5  8  1  0  0  0  0
  8  9  1  0  0  0  0
  8 10  1  0  0  0  0
  8 11  1  0  0  0  0
 11 12  1  0  0  0  0
 11 13  1  0  0  0  0
 11 14  1  0  0  0  0
 14 15  1  0  0  0  0
 14 16  1  0  0  0  0
 14 17  1  0  0  0  0
 17 18  1  0  0  0  0
 17 19  1  0  0  0  0
 17 20  1  0  0  0  0
M  END
> <VConfSearch Rank>
765

> <Conf_Id>
80

> <Delta U+W>
2.920

> <U+W>
-8.857

> <U>
49.434

> <W>
-58.292

> <W(PB)>
-60.170

> <W(SA)>
1.879

> <Valence>
3.798

> <Coulomb>
45.253

> <VdW>
0.384

> <VdW6>
-5.595

> <VdW12>
5.979

> <Bond>
0.198

> <Angle>
1.368

> <Pdih>
2.231

> <Idih>
0.000

> <Tether>
0.000

$$$$
VeraChem MOL file


 20 19  0  0  0  0  0  0  0  0999 V2000     
   19.5862   20.3501   24.4241 N   0  3  0  0  0  0  0  0  0  0  0  0
   20.2418   21.0293   24.8228 H   0  0  0  0  0  0  0  0  0  0  0  0
   18.6842   20.4985   24.8885 H   0  0  0  0  0  0  0  0  0  0  0  0
   19.9127   19.4184   24.6960 H   0  0  0  0  0  0  0  0  0  0  0  0
   19.4740   20.4907   22.9183 C   0  0  0  0  0  0  0  0  0  0  0  0
   19.0817   21.4899   22.7102 H   0  0  0  0  0  0  0  0  0  0  0  0
   18.7412   19.7629   22.5664 H   0  0  0  0  0  0  0  0  0  0  0  0
   20.8135   20.3080   22.1733 C   0  0  0  0  0  0  0  0  0  0  0  0
   20.6754   20.5521   21.1118 H   0  0  0  0  0  0  0  0  0  0  0  0
   21.5233   21.0501   22.5623 H   0  0  0  0  0  0  0  0  0  0  0  0
   21.4426   18.8947   22.3049 C   0  0  0  0  0  0  0  0  0  0  0  0
   21.3512   18.5243   23.3340 H   0  0  0  0  0  0  0  0  0  0  0  0
   22.5222   18.9889   22.1230 H   0  0  0  0  0  0  0  0  0  0  0  0
   20.8963   17.8376   21.3109 C   0  0  0  0  0  0  0  0  0  0  0  0
   21.0772   18.1704   20.2792 H   0  0  0  0  0  0  0  0  0  0  0  0
   21.4779   16.9136   21.4368 H   0  0  0  0  0  0  0  0  0  0  0  0
   19.3989   17.5021   21.4873 C   0  0  0  0  0  0  0  0  0  0  0  0
   18.7620   18.3291   21.1520 H   0  0  0  0  0  0  0  0  0  0  0  0
   19.1309   16.6239   20.8856 H   0  0  0  0  0  0  0  0  0  0  0  0
   19.1613   17.2757   22.5347 H   0  0  0  0  0  0  0  0  0  0  0  0
  1  2  1  0  0  0  0
  1  3  1  0  0  0  0
  1  4  1  0  0  0  0
  1  5  1  0  0  0  0
  5  6  1  0  0  0  0
  5  7  1  0  0  0  0
  5  8  1  0  0  0  0
  8  9  1  0  0  0  0
  8 10  1  0  0  0  0
  8 11  1  0  0  0  0
 11 12  1  0  0  0  0
 11 13  1  0  0  0  0
 11 14  1  0  0  0  0
 14 15  1  0  0  0  0
 14 16  1  0  0  0  0
 14 17  1  0  0  0  0
 17 18  1  0  0  0  0
 17 19  1  0  0  0  0
 17 20  1  0  0  0  0
M  END
> <VConfSearch Rank>
766

> <Conf_Id>
65

> <Delta U+W>
2.949

> <U+W>
-8.829

> <U>
49.435

> <W>
-58.263

> <W(PB)>
-60.125

> <W(SA)>
1.862

> <Valence>
3.797

> <Coulomb>
45.253

> <VdW>
0.384

> <VdW6>
-5.596

> <VdW12>
5.980

> <Bond>
0.198

> <Angle>
1.369

> <Pdih>
2.230

> <Idih>
0.000

> <Tether>
0.000

$$$$
VeraChem MOL file


 20 19  0  0  0  0  0  0  0  0999 V2000     
   18.5117   18.2635   23.0839 N   0  3  0  0  0  0  0  0  0  0  0  0
   17.9767   18.1639   23.9531 H   0  0  0  0  0  0  0  0  0  0  0  0
   18.4776   19.2516   22.8153 H   0  0  0  0  0  0  0  0  0  0  0  0
   18.0109   17.7340   22.3633 H   0  0  0  0  0  0  0  0  0  0  0  0
   19.9411   17.7829   23.2436 C   0  0  0  0  0  0  0  0  0  0  0  0
   19.8936   16.7278   23.5266 H   0  0  0  0  0  0  0  0  0  0  0  0
   20.4066   18.3337   24.0653 H   0  0  0  0  0  0  0  0  0  0  0  0
   20.7959   17.9240   21.9677 C   0  0  0  0  0  0  0  0  0  0  0  0
   21.6223   17.2044   22.0387 H   0  0  0  0  0  0  0  0  0  0  0  0
   20.2090   17.6184   21.0914 H   0  0  0  0  0  0  0  0  0  0  0  0
   21.4113   19.3302   21.7362 C   0  0  0  0  0  0  0  0  0  0  0  0
   22.0330   19.2714   20.8320 H   0  0  0  0  0  0  0  0  0  0  0  0
   22.1045   19.5747   22.5529 H   0  0  0  0  0  0  0  0  0  0  0  0
   20.3907   20.4806   21.5425 C   0  0  0  0  0  0  0  0  0  0  0  0
   20.7989   21.1907   20.8094 H   0  0  0  0  0  0  0  0  0  0  0  0
   19.4616   20.0993   21.0980 H   0  0  0  0  0  0  0  0  0  0  0  0
   20.1010   21.2618   22.8462 C   0  0  0  0  0  0  0  0  0  0  0  0
   19.7552   20.6115   23.6568 H   0  0  0  0  0  0  0  0  0  0  0  0
   21.0061   21.7733   23.1987 H   0  0  0  0  0  0  0  0  0  0  0  0
   19.3340   22.0284   22.6755 H   0  0  0  0  0  0  0  0  0  0  0  0
  1  2  1  0  0  0  0
  1  3  1  0  0  0  0
  1  4  1  0  0  0  0
  1  5  1  0  0  0  0
  5  6  1  0  0  0  0
  5  7  1  0  0  0  0
  5  8  1  0  0  0  0
  8  9  1  0  0  0  0
  8 10  1  0  0  0  0
  8 11  1  0  0  0  0
 11 12  1  0  0  0  0
 11 13  1  0  0  0  0
 11 14  1  0  0  0  0
 14 15  1  0  0  0  0
 14 16  1  0  0  0  0
 14 17  1  0  0  0  0
 17 18  1  0  0  0  0
 17 19  1  0  0  0  0
 17 20  1  0  0  0  0
M  END
> <VConfSearch Rank>
767

> <Conf_Id>
77

> <Delta U+W>
5.366

> <U+W>
-6.412

> <U>
51.542

> <W>
-57.954

> <W(PB)>
-59.811

> <W(SA)>
1.857

> <Valence>
5.347

> <Coulomb>
45.870

> <VdW>
0.325

> <VdW6>
-6.161

> <VdW12>
6.486

> <Bond>
0.201

> <Angle>
1.484

> <Pdih>
3.662

> <Idih>
0.000

> <Tether>
0.000

$$$$
VeraChem MOL file


 20 19  0  0  0  0  0  0  0  0999 V2000     
   21.2134   17.6967   21.4091 N   0  3  0  0  0  0  0  0  0  0  0  0
   21.0872   16.7239   21.7061 H   0  0  0  0  0  0  0  0  0  0  0  0
   20.2983   18.0443   21.1066 H   0  0  0  0  0  0  0  0  0  0  0  0
   21.8225   17.6800   20.5843 H   0  0  0  0  0  0  0  0  0  0  0  0
   21.7910   18.5533   22.5192 C   0  0  0  0  0  0  0  0  0  0  0  0
   21.9658   19.5600   22.1305 H   0  0  0  0  0  0  0  0  0  0  0  0
   22.7588   18.1201   22.7862 H   0  0  0  0  0  0  0  0  0  0  0  0
   20.9063   18.6248   23.7804 C   0  0  0  0  0  0  0  0  0  0  0  0
   20.5033   17.6292   24.0087 H   0  0  0  0  0  0  0  0  0  0  0  0
   21.5540   18.8859   24.6278 H   0  0  0  0  0  0  0  0  0  0  0  0
   19.7575   19.6674   23.7240 C   0  0  0  0  0  0  0  0  0  0  0  0
   20.1748   20.6796   23.6303 H   0  0  0  0  0  0  0  0  0  0  0  0
   19.2496   19.6490   24.6983 H   0  0  0  0  0  0  0  0  0  0  0  0
   18.6928   19.4270   22.6236 C   0  0  0  0  0  0  0  0  0  0  0  0
   18.6057   18.3551   22.4006 H   0  0  0  0  0  0  0  0  0  0  0  0
   17.7107   19.7277   23.0152 H   0  0  0  0  0  0  0  0  0  0  0  0
   18.9567   20.2410   21.3345 C   0  0  0  0  0  0  0  0  0  0  0  0
   18.2124   19.9987   20.5647 H   0  0  0  0  0  0  0  0  0  0  0  0
   18.8840   21.3177   21.5364 H   0  0  0  0  0  0  0  0  0  0  0  0
   19.9509   20.0525   20.9155 H   0  0  0  0  0  0  0  0  0  0  0  0
  1  2  1  0  0  0  0
  1  3  1  0  0  0  0
  1  4  1  0  0  0  0
  1  5  1  0  0  0  0
  5  6  1  0  0  0  0
  5  7  1  0  0  0  0
  5  8  1  0  0  0  0
  8  9  1  0  0  0  0
  8 10  1  0  0  0  0
  8 11  1  0  0  0  0
 11 12  1  0  0  0  0
 11 13  1  0  0  0  0
 11 14  1  0  0  0  0
 14 15  1  0  0  0  0
 14 16  1  0  0  0  0
 14 17  1  0  0  0  0
 17 18  1  0  0  0  0
 17 19  1  0  0  0  0
 17 20  1  0  0  0  0
M  END
> <VConfSearch Rank>
768

> <Conf_Id>
67

> <Delta U+W>
5.353

> <U+W>
-6.425

> <U>
51.541

> <W>
-57.966

> <W(PB)>
-59.821

> <W(SA)>
1.855

> <Valence>
5.347

> <Coulomb>
45.870

> <VdW>
0.325

> <VdW6>
-6.161

> <VdW12>
6.486

> <Bond>
0.201

> <Angle>
1.485

> <Pdih>
3.662

> <Idih>
0.000

> <Tether>
0.000

$$$$
VeraChem MOL file


 20 19  0  0  0  0  0  0  0  0999 V2000     
   19.7269   22.2824   22.0087 N   0  3  0  0  0  0  0  0  0  0  0  0
   19.4202   22.5235   22.9564 H   0  0  0  0  0  0  0  0  0  0  0  0
   20.2796   23.0747   21.6646 H   0  0  0  0  0  0  0  0  0  0  0  0
   18.8866   22.2303   21.4242 H   0  0  0  0  0  0  0  0  0  0  0  0
   20.5177   20.9900   21.9806 C   0  0  0  0  0  0  0  0  0  0  0  0
   21.4103   21.1269   22.5971 H   0  0  0  0  0  0  0  0  0  0  0  0
   20.8365   20.8116   20.9500 H   0  0  0  0  0  0  0  0  0  0  0  0
   19.7163   19.7792   22.4916 C   0  0  0  0  0  0  0  0  0  0  0  0
   19.3846   19.9693   23.5211 H   0  0  0  0  0  0  0  0  0  0  0  0
   18.8128   19.6551   21.8797 H   0  0  0  0  0  0  0  0  0  0  0  0
   20.5572   18.4840   22.4466 C   0  0  0  0  0  0  0  0  0  0  0  0
   21.4629   18.6136   23.0555 H   0  0  0  0  0  0  0  0  0  0  0  0
   20.8917   18.2997   21.4161 H   0  0  0  0  0  0  0  0  0  0  0  0
   19.7625   17.2614   22.9576 C   0  0  0  0  0  0  0  0  0  0  0  0
   19.4278   17.4407   23.9890 H   0  0  0  0  0  0  0  0  0  0  0  0
   18.8567   17.1268   22.3497 H   0  0  0  0  0  0  0  0  0  0  0  0
   20.6066   15.9698   22.9109 C   0  0  0  0  0  0  0  0  0  0  0  0
   21.5034   16.0610   23.5376 H   0  0  0  0  0  0  0  0  0  0  0  0
   20.0257   15.1135   23.2773 H   0  0  0  0  0  0  0  0  0  0  0  0
   20.9277   15.7446   21.8855 H   0  0  0  0  0  0  0  0  0  0  0  0
  1  2  1  0  0  0  0
  1  3  1  0  0  0  0
  1  4  1  0  0  0  0
  1  5  1  0  0  0  0
  5  6  1  0  0  0  0
  5  7  1  0  0  0  0
  5  8  1  0  0  0  0
  8  9  1  0  0  0  0
  8 10  1  0  0  0  0
  8 11  1  0  0  0  0
 11 12  1  0  0  0  0
 11 13  1  0  0  0  0
 11 14  1  0  0  0  0
 14 15  1  0  0  0  0
 14 16  1  0  0  0  0
 14 17  1  0  0  0  0
 17 18  1  0  0  0  0
 17 19  1  0  0  0  0
 17 20  1  0  0  0  0
M  END
> <VConfSearch Rank>
769

> <Conf_Id>
72

> <Delta U+W>
0.000

> <U+W>
-11.778

> <U>
45.772

> <W>
-57.550

> <W(PB)>
-59.511

> <W(SA)>
1.961

> <Valence>
1.299

> <Coulomb>
44.177

> <VdW>
0.297

> <VdW6>
-3.490

> <VdW12>
3.786

> <Bond>
0.096

> <Angle>
0.381

> <Pdih>
0.822

> <Idih>
0.000

> <Tether>
0.000

$$$$
VeraChem MOL file


 20 19  0  0  0  0  0  0  0  0999 V2000     
   18.9936   16.3865   22.5249 N   0  3  0  0  0  0  0  0  0  0  0  0
   19.9154   15.9987   22.7493 H   0  0  0  0  0  0  0  0  0  0  0  0
   18.4748   16.4596   23.4057 H   0  0  0  0  0  0  0  0  0  0  0  0
   18.5089   15.6880   21.9516 H   0  0  0  0  0  0  0  0  0  0  0  0
   19.0978   17.7221   21.8164 C   0  0  0  0  0  0  0  0  0  0  0  0
   18.0846   18.0594   21.5816 H   0  0  0  0  0  0  0  0  0  0  0  0
   19.6335   17.5646   20.8763 H   0  0  0  0  0  0  0  0  0  0  0  0
   19.8206   18.7950   22.6505 C   0  0  0  0  0  0  0  0  0  0  0  0
   19.2884   18.9384   23.6003 H   0  0  0  0  0  0  0  0  0  0  0  0
   20.8291   18.4386   22.8951 H   0  0  0  0  0  0  0  0  0  0  0  0
   19.9017   20.1400   21.8907 C   0  0  0  0  0  0  0  0  0  0  0  0
   18.8892   20.4416   21.5880 H   0  0  0  0  0  0  0  0  0  0  0  0
   20.4742   20.0067   20.9622 H   0  0  0  0  0  0  0  0  0  0  0  0
   20.5275   21.2842   22.7249 C   0  0  0  0  0  0  0  0  0  0  0  0
   20.4508   22.2199   22.1535 H   0  0  0  0  0  0  0  0  0  0  0  0
   19.9437   21.4370   23.6434 H   0  0  0  0  0  0  0  0  0  0  0  0
   22.0108   21.0415   23.0862 C   0  0  0  0  0  0  0  0  0  0  0  0
   22.6118   20.8578   22.1862 H   0  0  0  0  0  0  0  0  0  0  0  0
   22.4303   21.9184   23.5961 H   0  0  0  0  0  0  0  0  0  0  0  0
   22.1271   20.1829   23.7590 H   0  0  0  0  0  0  0  0  0  0  0  0
  1  2  1  0  0  0  0
  1  3  1  0  0  0  0
  1  4  1  0  0  0  0
  1  5  1  0  0  0  0
  5  6  1  0  0  0  0
  5  7  1  0  0  0  0
  5  8  1  0  0  0  0
  8  9  1  0  0  0  0
  8 10  1  0  0  0  0
  8 11  1  0  0  0  0
 11 12  1  0  0  0  0
 11 13  1  0  0  0  0
 11 14  1  0  0  0  0
 14 15  1  0  0  0  0
 14 16  1  0  0  0  0
 14 17  1  0  0  0  0
 17 18  1  0  0  0  0
 17 19  1  0  0  0  0
 17 20  1  0  0  0  0
M  END
> <VConfSearch Rank>
770

> <Conf_Id>
42

> <Delta U+W>
0.508

> <U+W>
-11.270

> <U>
46.486

> <W>
-57.756

> <W(PB)>
-59.705

> <W(SA)>
1.949

> <Valence>
1.806

> <Coulomb>
44.248

> <VdW>
0.433

> <VdW6>
-4.089

> <VdW12>
4.522

> <Bond>
0.131

> <Angle>
0.628

> <Pdih>
1.047

> <Idih>
0.000

> <Tether>
0.000

$$$$
VeraChem MOL file


 20 19  0  0  0  0  0  0  0  0999 V2000     
   19.7649   16.8314   20.5026 N   0  3  0  0  0  0  0  0  0  0  0  0
   20.6313   16.9669   19.9722 H   0  0  0  0  0  0  0  0  0  0  0  0
   19.9584   16.1262   21.2206 H   0  0  0  0  0  0  0  0  0  0  0  0
   19.0829   16.4191   19.8573 H   0  0  0  0  0  0  0  0  0  0  0  0
   19.2595   18.1277   21.1030 C   0  0  0  0  0  0  0  0  0  0  0  0
   18.3229   17.9152   21.6256 H   0  0  0  0  0  0  0  0  0  0  0  0
   19.0458   18.8186   20.2830 H   0  0  0  0  0  0  0  0  0  0  0  0
   20.2605   18.7743   22.0773 C   0  0  0  0  0  0  0  0  0  0  0  0
   20.4811   18.0659   22.8858 H   0  0  0  0  0  0  0  0  0  0  0  0
   21.2048   18.9714   21.5526 H   0  0  0  0  0  0  0  0  0  0  0  0
   19.7051   20.0938   22.6634 C   0  0  0  0  0  0  0  0  0  0  0  0
   18.7845   19.8896   23.2276 H   0  0  0  0  0  0  0  0  0  0  0  0
   19.4191   20.7597   21.8372 H   0  0  0  0  0  0  0  0  0  0  0  0
   20.7135   20.8398   23.5707 C   0  0  0  0  0  0  0  0  0  0  0  0
   21.6268   21.0672   23.0031 H   0  0  0  0  0  0  0  0  0  0  0  0
   20.2808   21.8087   23.8566 H   0  0  0  0  0  0  0  0  0  0  0  0
   21.0798   20.0598   24.8540 C   0  0  0  0  0  0  0  0  0  0  0  0
   21.6251   19.1363   24.6234 H   0  0  0  0  0  0  0  0  0  0  0  0
   21.7227   20.6684   25.5030 H   0  0  0  0  0  0  0  0  0  0  0  0
   20.1808   19.7954   25.4259 H   0  0  0  0  0  0  0  0  0  0  0  0
  1  2  1  0  0  0  0
  1  3  1  0  0  0  0
  1  4  1  0  0  0  0
  1  5  1  0  0  0  0
  5  6  1  0  0  0  0
  5  7  1  0  0  0  0
  5  8  1  0  0  0  0
  8  9  1  0  0  0  0
  8 10  1  0  0  0  0
  8 11  1  0  0  0  0
 11 12  1  0  0  0  0
 11 13  1  0  0  0  0
 11 14  1  0  0  0  0
 14 15  1  0  0  0  0
 14 16  1  0  0  0  0
 14 17  1  0  0  0  0
 17 18  1  0  0  0  0
 17 19  1  0  0  0  0
 17 20  1  0  0  0  0
M  END
> <VConfSearch Rank>
771

> <Conf_Id>
41

> <Delta U+W>
0.515

> <U+W>
-11.263

> <U>
46.486

> <W>
-57.749

> <W(PB)>
-59.685

> <W(SA)>
1.936

> <Valence>
1.806

> <Coulomb>
44.248

> <VdW>
0.433

> <VdW6>
-4.089

> <VdW12>
4.522

> <Bond>
0.131

> <Angle>
0.628

> <Pdih>
1.047

> <Idih>
0.000

> <Tether>
0.000

$$$$
VeraChem MOL file


 20 19  0  0  0  0  0  0  0  0999 V2000     
   20.5180   18.5207   19.7899 N   0  3  0  0  0  0  0  0  0  0  0  0
   20.4623   18.7595   18.7942 H   0  0  0  0  0  0  0  0  0  0  0  0
   21.4659   18.7540   20.0997 H   0  0  0  0  0  0  0  0  0  0  0  0
   20.4189   17.5030   19.8580 H   0  0  0  0  0  0  0  0  0  0  0  0
   19.4630   19.2467   20.6025 C   0  0  0  0  0  0  0  0  0  0  0  0
   18.4866   18.9831   20.1869 H   0  0  0  0  0  0  0  0  0  0  0  0
   19.6104   20.3217   20.4680 H   0  0  0  0  0  0  0  0  0  0  0  0
   19.4863   18.9039   22.1051 C   0  0  0  0  0  0  0  0  0  0  0  0
   18.6190   19.3840   22.5751 H   0  0  0  0  0  0  0  0  0  0  0  0
   19.3556   17.8215   22.2360 H   0  0  0  0  0  0  0  0  0  0  0  0
   20.7871   19.3711   22.8055 C   0  0  0  0  0  0  0  0  0  0  0  0
   20.8994   20.4581   22.6898 H   0  0  0  0  0  0  0  0  0  0  0  0
   21.6538   18.9163   22.3079 H   0  0  0  0  0  0  0  0  0  0  0  0
   20.8447   19.0027   24.3082 C   0  0  0  0  0  0  0  0  0  0  0  0
   20.7465   17.9147   24.4284 H   0  0  0  0  0  0  0  0  0  0  0  0
   21.8384   19.2656   24.6972 H   0  0  0  0  0  0  0  0  0  0  0  0
   19.7723   19.7192   25.1604 C   0  0  0  0  0  0  0  0  0  0  0  0
   18.7595   19.3935   24.8930 H   0  0  0  0  0  0  0  0  0  0  0  0
   19.9181   19.4983   26.2257 H   0  0  0  0  0  0  0  0  0  0  0  0
   19.8289   20.8080   25.0333 H   0  0  0  0  0  0  0  0  0  0  0  0
  1  2  1  0  0  0  0
  1  3  1  0  0  0  0
  1  4  1  0  0  0  0
  1  5  1  0  0  0  0
  5  6  1  0  0  0  0
  5  7  1  0  0  0  0
  5  8  1  0  0  0  0
  8  9  1  0  0  0  0
  8 10  1  0  0  0  0
  8 11  1  0  0  0  0
 11 12  1  0  0  0  0
 11 13  1  0  0  0  0
 11 14  1  0  0  0  0
 14 15  1  0  0  0  0
 14 16  1  0  0  0  0
 14 17  1  0  0  0  0
 17 18  1  0  0  0  0
 17 19  1  0  0  0  0
 17 20  1  0  0  0  0
M  END
> <VConfSearch Rank>
772

> <Conf_Id>
33

> <Delta U+W>
0.703

> <U+W>
-11.075

> <U>
47.080

> <W>
-58.154

> <W(PB)>
-60.053

> <W(SA)>
1.899

> <Valence>
1.943

> <Coulomb>
44.572

> <VdW>
0.565

> <VdW6>
-4.575

> <VdW12>
5.139

> <Bond>
0.158

> <Angle>
0.700

> <Pdih>
1.085

> <Idih>
0.000

> <Tether>
0.000

$$$$
VeraChem MOL file


 20 19  0  0  0  0  0  0  0  0999 V2000     
   22.5503   19.8778   23.6093 N   0  3  0  0  0  0  0  0  0  0  0  0
   23.1262   20.5300   24.1520 H   0  0  0  0  0  0  0  0  0  0  0  0
   22.9361   18.9410   23.7635 H   0  0  0  0  0  0  0  0  0  0  0  0
   22.6934   20.1052   22.6210 H   0  0  0  0  0  0  0  0  0  0  0  0
   21.0876   19.9580   24.0018 C   0  0  0  0  0  0  0  0  0  0  0  0
   20.7466   20.9835   23.8355 H   0  0  0  0  0  0  0  0  0  0  0  0
   21.0208   19.7474   25.0727 H   0  0  0  0  0  0  0  0  0  0  0  0
   20.1796   18.9784   23.2326 C   0  0  0  0  0  0  0  0  0  0  0  0
   20.5349   17.9510   23.3874 H   0  0  0  0  0  0  0  0  0  0  0  0
   19.1753   19.0327   23.6708 H   0  0  0  0  0  0  0  0  0  0  0  0
   20.1075   19.2935   21.7171 C   0  0  0  0  0  0  0  0  0  0  0  0
   21.1193   19.2736   21.2911 H   0  0  0  0  0  0  0  0  0  0  0  0
   19.7300   20.3148   21.5694 H   0  0  0  0  0  0  0  0  0  0  0  0
   19.2288   18.2976   20.9215 C   0  0  0  0  0  0  0  0  0  0  0  0
   19.3237   18.5227   19.8499 H   0  0  0  0  0  0  0  0  0  0  0  0
   19.6106   17.2757   21.0551 H   0  0  0  0  0  0  0  0  0  0  0  0
   17.7331   18.3489   21.3090 C   0  0  0  0  0  0  0  0  0  0  0  0
   17.3349   19.3674   21.2142 H   0  0  0  0  0  0  0  0  0  0  0  0
   17.1438   17.6963   20.6518 H   0  0  0  0  0  0  0  0  0  0  0  0
   17.5707   18.0102   22.3396 H   0  0  0  0  0  0  0  0  0  0  0  0
  1  2  1  0  0  0  0
  1  3  1  0  0  0  0
  1  4  1  0  0  0  0
  1  5  1  0  0  0  0
  5  6  1  0  0  0  0
  5  7  1  0  0  0  0
  5  8  1  0  0  0  0
  8  9  1  0  0  0  0
  8 10  1  0  0  0  0
  8 11  1  0  0  0  0
 11 12  1  0  0  0  0
 11 13  1  0  0  0  0
 11 14  1  0  0  0  0
 14 15  1  0  0  0  0
 14 16  1  0  0  0  0
 14 17  1  0  0  0  0
 17 18  1  0  0  0  0
 17 19  1  0  0  0  0
 17 20  1  0  0  0  0
M  END
> <VConfSearch Rank>
773

> <Conf_Id>
24

> <Delta U+W>
0.847

> <U+W>
-10.931

> <U>
47.080

> <W>
-58.011

> <W(PB)>
-59.914

> <W(SA)>
1.903

> <Valence>
1.943

> <Coulomb>
44.572

> <VdW>
0.565

> <VdW6>
-4.575

> <VdW12>
5.140

> <Bond>
0.158

> <Angle>
0.700

> <Pdih>
1.085

> <Idih>
0.000

> <Tether>
0.000

$$$$
VeraChem MOL file


 20 19  0  0  0  0  0  0  0  0999 V2000     
   22.4835   20.6164   22.3051 N   0  3  0  0  0  0  0  0  0  0  0  0
   22.8206   21.3451   22.9430 H   0  0  0  0  0  0  0  0  0  0  0  0
   23.0342   19.7740   22.4985 H   0  0  0  0  0  0  0  0  0  0  0  0
   22.7210   20.9201   21.3555 H   0  0  0  0  0  0  0  0  0  0  0  0
   20.9969   20.3708   22.4658 C   0  0  0  0  0  0  0  0  0  0  0  0
   20.4760   21.3128   22.2744 H   0  0  0  0  0  0  0  0  0  0  0  0
   20.8146   20.0817   23.5042 H   0  0  0  0  0  0  0  0  0  0  0  0
   20.4581   19.2799   21.5212 C   0  0  0  0  0  0  0  0  0  0  0  0
   20.6832   19.5603   20.4837 H   0  0  0  0  0  0  0  0  0  0  0  0
   20.9867   18.3361   21.7062 H   0  0  0  0  0  0  0  0  0  0  0  0
   18.9299   19.0675   21.6607 C   0  0  0  0  0  0  0  0  0  0  0  0
   18.6124   18.2886   20.9537 H   0  0  0  0  0  0  0  0  0  0  0  0
   18.4124   19.9859   21.3504 H   0  0  0  0  0  0  0  0  0  0  0  0
   18.4534   18.6837   23.0851 C   0  0  0  0  0  0  0  0  0  0  0  0
   18.6678   19.4988   23.7897 H   0  0  0  0  0  0  0  0  0  0  0  0
   17.3596   18.5775   23.0717 H   0  0  0  0  0  0  0  0  0  0  0  0
   19.0748   17.3683   23.6074 C   0  0  0  0  0  0  0  0  0  0  0  0
   18.6363   17.0938   24.5755 H   0  0  0  0  0  0  0  0  0  0  0  0
   18.8919   16.5409   22.9096 H   0  0  0  0  0  0  0  0  0  0  0  0
   20.1581   17.4641   23.7516 H   0  0  0  0  0  0  0  0  0  0  0  0
  1  2  1  0  0  0  0
  1  3  1  0  0  0  0
  1  4  1  0  0  0  0
  1  5  1  0  0  0  0
  5  6  1  0  0  0  0
  5  7  1  0  0  0  0
  5  8  1  0  0  0  0
  8  9  1  0  0  0  0
  8 10  1  0  0  0  0
  8 11  1  0  0  0  0
 11 12  1  0  0  0  0
 11 13  1  0  0  0  0
 11 14  1  0  0  0  0
 14 15  1  0  0  0  0
 14 16  1  0  0  0  0
 14 17  1  0  0  0  0
 17 18  1  0  0  0  0
 17 19  1  0  0  0  0
 17 20  1  0  0  0  0
M  END
> <VConfSearch Rank>
774

> <Conf_Id>
64

> <Delta U+W>
0.707

> <U+W>
-11.070

> <U>
47.077

> <W>
-58.148

> <W(PB)>
-60.054

> <W(SA)>
1.906

> <Valence>
2.039

> <Coulomb>
44.655

> <VdW>
0.383

> <VdW6>
-4.912

> <VdW12>
5.295

> <Bond>
0.159

> <Angle>
0.856

> <Pdih>
1.024

> <Idih>
0.000

> <Tether>
0.000

$$$$
VeraChem MOL file


 20 19  0  0  0  0  0  0  0  0999 V2000     
   19.1439   18.3577   20.0568 N   0  3  0  0  0  0  0  0  0  0  0  0
   18.1829   18.6791   19.9038 H   0  0  0  0  0  0  0  0  0  0  0  0
   19.7621   19.0134   19.5688 H   0  0  0  0  0  0  0  0  0  0  0  0
   19.2341   17.4537   19.5812 H   0  0  0  0  0  0  0  0  0  0  0  0
   19.4783   18.2543   21.5312 C   0  0  0  0  0  0  0  0  0  0  0  0
   20.5013   17.8790   21.6179 H   0  0  0  0  0  0  0  0  0  0  0  0
   18.8034   17.5205   21.9802 H   0  0  0  0  0  0  0  0  0  0  0  0
   19.3530   19.5968   22.2758 C   0  0  0  0  0  0  0  0  0  0  0  0
   20.0233   20.3367   21.8200 H   0  0  0  0  0  0  0  0  0  0  0  0
   18.3338   19.9848   22.1474 H   0  0  0  0  0  0  0  0  0  0  0  0
   19.6528   19.4724   23.7906 C   0  0  0  0  0  0  0  0  0  0  0  0
   18.8940   18.8254   24.2522 H   0  0  0  0  0  0  0  0  0  0  0  0
   19.5339   20.4590   24.2595 H   0  0  0  0  0  0  0  0  0  0  0  0
   21.0583   18.9148   24.1324 C   0  0  0  0  0  0  0  0  0  0  0  0
   21.1539   18.8522   25.2255 H   0  0  0  0  0  0  0  0  0  0  0  0
   21.1586   17.8853   23.7623 H   0  0  0  0  0  0  0  0  0  0  0  0
   22.2137   19.7804   23.5804 C   0  0  0  0  0  0  0  0  0  0  0  0
   22.1248   20.8206   23.9197 H   0  0  0  0  0  0  0  0  0  0  0  0
   23.1817   19.3961   23.9273 H   0  0  0  0  0  0  0  0  0  0  0  0
   22.2316   19.7764   22.4835 H   0  0  0  0  0  0  0  0  0  0  0  0
  1  2  1  0  0  0  0
  1  3  1  0  0  0  0
  1  4  1  0  0  0  0
  1  5  1  0  0  0  0
  5  6  1  0  0  0  0
  5  7  1  0  0  0  0
  5  8  1  0  0  0  0
  8  9  1  0  0  0  0
  8 10  1  0  0  0  0
  8 11  1  0  0  0  0
 11 12  1  0  0  0  0
 11 13  1  0  0  0  0
 11 14  1  0  0  0  0
 14 15  1  0  0  0  0
 14 16  1  0  0  0  0
 14 17  1  0  0  0  0
 17 18  1  0  0  0  0
 17 19  1  0  0  0  0
 17 20  1  0  0  0  0
M  END
> <VConfSearch Rank>
775

> <Conf_Id>
22

> <Delta U+W>
0.731

> <U+W>
-11.047

> <U>
47.078

> <W>
-58.125

> <W(PB)>
-60.031

> <W(SA)>
1.906

> <Valence>
2.039

> <Coulomb>
44.655

> <VdW>
0.383

> <VdW6>
-4.913

> <VdW12>
5.296

> <Bond>
0.159

> <Angle>
0.856

> <Pdih>
1.024

> <Idih>
0.000

> <Tether>
0.000

$$$$
VeraChem MOL file


 20 19  0  0  0  0  0  0  0  0999 V2000     
   18.6017   19.3890   20.2479 N   0  3  0  0  0  0  0  0  0  0  0  0
   17.7702   19.8679   20.6081 H   0  0  0  0  0  0  0  0  0  0  0  0
   19.0078   19.9927   19.5261 H   0  0  0  0  0  0  0  0  0  0  0  0
   18.2745   18.5398   19.7753 H   0  0  0  0  0  0  0  0  0  0  0  0
   19.5953   19.0744   21.3481 C   0  0  0  0  0  0  0  0  0  0  0  0
   20.4392   18.5429   20.9001 H   0  0  0  0  0  0  0  0  0  0  0  0
   19.1023   18.4077   22.0593 H   0  0  0  0  0  0  0  0  0  0  0  0
   20.1019   20.3291   22.0815 C   0  0  0  0  0  0  0  0  0  0  0  0
   20.4859   21.0411   21.3389 H   0  0  0  0  0  0  0  0  0  0  0  0
   19.2594   20.8260   22.5806 H   0  0  0  0  0  0  0  0  0  0  0  0
   21.2229   20.0441   23.1131 C   0  0  0  0  0  0  0  0  0  0  0  0
   21.5664   21.0125   23.5027 H   0  0  0  0  0  0  0  0  0  0  0  0
   22.0944   19.5999   22.6126 H   0  0  0  0  0  0  0  0  0  0  0  0
   20.7937   19.1680   24.3187 C   0  0  0  0  0  0  0  0  0  0  0  0
   21.4214   19.4359   25.1802 H   0  0  0  0  0  0  0  0  0  0  0  0
   19.7614   19.4037   24.6130 H   0  0  0  0  0  0  0  0  0  0  0  0
   20.9486   17.6482   24.0759 C   0  0  0  0  0  0  0  0  0  0  0  0
   20.2826   17.2830   23.2872 H   0  0  0  0  0  0  0  0  0  0  0  0
   21.9796   17.3974   23.7946 H   0  0  0  0  0  0  0  0  0  0  0  0
   20.7094   17.0895   24.9900 H   0  0  0  0  0  0  0  0  0  0  0  0
  1  2  1  0  0  0  0
  1  3  1  0  0  0  0
  1  4  1  0  0  0  0
  1  5  1  0  0  0  0
  5  6  1  0  0  0  0
  5  7  1  0  0  0  0
  5  8  1  0  0  0  0
  8  9  1  0  0  0  0
  8 10  1  0  0  0  0
  8 11  1  0  0  0  0
 11 12  1  0  0  0  0
 11 13  1  0  0  0  0
 11 14  1  0  0  0  0
 14 15  1  0  0  0  0
 14 16  1  0  0  0  0
 14 17  1  0  0  0  0
 17 18  1  0  0  0  0
 17 19  1  0  0  0  0
 17 20  1  0  0  0  0
M  END
> <VConfSearch Rank>
776

> <Conf_Id>
61

> <Delta U+W>
2.669

> <U+W>
-9.108

> <U>
48.916

> <W>
-58.025

> <W(PB)>
-59.935

> <W(SA)>
1.911

> <Valence>
3.785

> <Coulomb>
44.716

> <VdW>
0.415

> <VdW6>
-4.836

> <VdW12>
5.251

> <Bond>
0.175

> <Angle>
1.195

> <Pdih>
2.415

> <Idih>
0.000

> <Tether>
0.000

$$$$
VeraChem MOL file


 20 19  0  0  0  0  0  0  0  0999 V2000     
   20.2946   21.1034   23.4328 N   0  3  0  0  0  0  0  0  0  0  0  0
   20.9038   21.9119   23.5966 H   0  0  0  0  0  0  0  0  0  0  0  0
   19.4493   21.2507   23.9932 H   0  0  0  0  0  0  0  0  0  0  0  0
   20.7726   20.2842   23.8167 H   0  0  0  0  0  0  0  0  0  0  0  0
   19.9710   20.9331   21.9607 C   0  0  0  0  0  0  0  0  0  0  0  0
   20.9085   20.8383   21.4063 H   0  0  0  0  0  0  0  0  0  0  0  0
   19.4776   21.8529   21.6352 H   0  0  0  0  0  0  0  0  0  0  0  0
   19.0524   19.7337   21.6457 C   0  0  0  0  0  0  0  0  0  0  0  0
   18.2431   19.6748   22.3855 H   0  0  0  0  0  0  0  0  0  0  0  0
   18.5648   19.9312   20.6818 H   0  0  0  0  0  0  0  0  0  0  0  0
   19.7851   18.3717   21.5365 C   0  0  0  0  0  0  0  0  0  0  0  0
   20.5521   18.4305   20.7518 H   0  0  0  0  0  0  0  0  0  0  0  0
   19.0591   17.6195   21.1977 H   0  0  0  0  0  0  0  0  0  0  0  0
   20.4316   17.8836   22.8541 C   0  0  0  0  0  0  0  0  0  0  0  0
   21.2640   18.5425   23.1312 H   0  0  0  0  0  0  0  0  0  0  0  0
   19.6955   17.9247   23.6693 H   0  0  0  0  0  0  0  0  0  0  0  0
   20.9683   16.4421   22.7239 C   0  0  0  0  0  0  0  0  0  0  0  0
   21.4321   16.1146   23.6635 H   0  0  0  0  0  0  0  0  0  0  0  0
   20.1598   15.7388   22.4855 H   0  0  0  0  0  0  0  0  0  0  0  0
   21.7259   16.3728   21.9325 H   0  0  0  0  0  0  0  0  0  0  0  0
  1  2  1  0  0  0  0
  1  3  1  0  0  0  0
  1  4  1  0  0  0  0
  1  5  1  0  0  0  0
  5  6  1  0  0  0  0
  5  7  1  0  0  0  0
  5  8  1  0  0  0  0
  8  9  1  0  0  0  0
  8 10  1  0  0  0  0
  8 11  1  0  0  0  0
 11 12  1  0  0  0  0
 11 13  1  0  0  0  0
 11 14  1  0  0  0  0
 14 15  1  0  0  0  0
 14 16  1  0  0  0  0
 14 17  1  0  0  0  0
 17 18  1  0  0  0  0
 17 19  1  0  0  0  0
 17 20  1  0  0  0  0
M  END
> <VConfSearch Rank>
777

> <Conf_Id>
69

> <Delta U+W>
2.811

> <U+W>
-8.967

> <U>
49.216

> <W>
-58.183

> <W(PB)>
-60.064

> <W(SA)>
1.881

> <Valence>
2.929

> <Coulomb>
46.006

> <VdW>
0.281

> <VdW6>
-4.909

> <VdW12>
5.190

> <Bond>
0.156

> <Angle>
0.974

> <Pdih>
1.799

> <Idih>
0.000

> <Tether>
0.000

$$$$
VeraChem MOL file


 20 19  0  0  0  0  0  0  0  0999 V2000     
   20.6229   17.5545   20.8860 N   0  3  0  0  0  0  0  0  0  0  0  0
   20.2437   18.4597   20.5965 H   0  0  0  0  0  0  0  0  0  0  0  0
   21.6356   17.5876   20.7324 H   0  0  0  0  0  0  0  0  0  0  0  0
   20.2479   16.8507   20.2413 H   0  0  0  0  0  0  0  0  0  0  0  0
   20.2831   17.2324   22.3287 C   0  0  0  0  0  0  0  0  0  0  0  0
   20.7136   16.2509   22.5453 H   0  0  0  0  0  0  0  0  0  0  0  0
   19.1967   17.1526   22.4217 H   0  0  0  0  0  0  0  0  0  0  0  0
   20.8231   18.2528   23.3527 C   0  0  0  0  0  0  0  0  0  0  0  0
   20.8895   17.7465   24.3249 H   0  0  0  0  0  0  0  0  0  0  0  0
   21.8506   18.5397   23.0925 H   0  0  0  0  0  0  0  0  0  0  0  0
   19.9392   19.5137   23.5340 C   0  0  0  0  0  0  0  0  0  0  0  0
   20.3545   20.1059   24.3612 H   0  0  0  0  0  0  0  0  0  0  0  0
   18.9313   19.2118   23.8509 H   0  0  0  0  0  0  0  0  0  0  0  0
   19.8379   20.4118   22.2789 C   0  0  0  0  0  0  0  0  0  0  0  0
   20.8436   20.6296   21.8928 H   0  0  0  0  0  0  0  0  0  0  0  0
   19.2890   19.8890   21.4856 H   0  0  0  0  0  0  0  0  0  0  0  0
   19.1114   21.7387   22.5866 C   0  0  0  0  0  0  0  0  0  0  0  0
   19.6489   22.3164   23.3498 H   0  0  0  0  0  0  0  0  0  0  0  0
   19.0393   22.3597   21.6843 H   0  0  0  0  0  0  0  0  0  0  0  0
   18.0923   21.5554   22.9515 H   0  0  0  0  0  0  0  0  0  0  0  0
  1  2  1  0  0  0  0
  1  3  1  0  0  0  0
  1  4  1  0  0  0  0
  1  5  1  0  0  0  0
  5  6  1  0  0  0  0
  5  7  1  0  0  0  0
  5  8  1  0  0  0  0
  8  9  1  0  0  0  0
  8 10  1  0  0  0  0
  8 11  1  0  0  0  0
 11 12  1  0  0  0  0
 11 13  1  0  0  0  0
 11 14  1  0  0  0  0
 14 15  1  0  0  0  0
 14 16  1  0  0  0  0
 14 17  1  0  0  0  0
 17 18  1  0  0  0  0
 17 19  1  0  0  0  0
 17 20  1  0  0  0  0
M  END
> <VConfSearch Rank>
778

> <Conf_Id>
26

> <Delta U+W>
2.809

> <U+W>
-8.969

> <U>
49.216

> <W>
-58.185

> <W(PB)>
-60.088

> <W(SA)>
1.903

> <Valence>
2.929

> <Coulomb>
46.006

> <VdW>
0.281

> <VdW6>
-4.909

> <VdW12>
5.190

> <Bond>
0.156

> <Angle>
0.974

> <Pdih>
1.799

> <Idih>
0.000

> <Tether>
0.000

$$$$
VeraChem MOL file


 20 19  0  0  0  0  0  0  0  0999 V2000     
   19.7948   18.4007   20.1948 N   0  3  0  0  0  0  0  0  0  0  0  0
   19.1203   19.1536   20.3590 H   0  0  0  0  0  0  0  0  0  0  0  0
   20.4535   18.7339   19.4841 H   0  0  0  0  0  0  0  0  0  0  0  0
   19.2775   17.6190   19.7792 H   0  0  0  0  0  0  0  0  0  0  0  0
   20.5024   17.9928   21.4722 C   0  0  0  0  0  0  0  0  0  0  0  0
   21.1798   17.1696   21.2295 H   0  0  0  0  0  0  0  0  0  0  0  0
   19.7511   17.6183   22.1723 H   0  0  0  0  0  0  0  0  0  0  0  0
   21.3016   19.1360   22.1300 C   0  0  0  0  0  0  0  0  0  0  0  0
   21.8401   18.7369   22.9990 H   0  0  0  0  0  0  0  0  0  0  0  0
   22.0751   19.4817   21.4315 H   0  0  0  0  0  0  0  0  0  0  0  0
   20.4313   20.3440   22.5664 C   0  0  0  0  0  0  0  0  0  0  0  0
   20.0246   20.8399   21.6749 H   0  0  0  0  0  0  0  0  0  0  0  0
   21.0777   21.0885   23.0512 H   0  0  0  0  0  0  0  0  0  0  0  0
   19.2627   19.9918   23.5221 C   0  0  0  0  0  0  0  0  0  0  0  0
   18.7043   20.9114   23.7469 H   0  0  0  0  0  0  0  0  0  0  0  0
   18.5507   19.3217   23.0216 H   0  0  0  0  0  0  0  0  0  0  0  0
   19.7283   19.3550   24.8512 C   0  0  0  0  0  0  0  0  0  0  0  0
   20.4547   19.9986   25.3642 H   0  0  0  0  0  0  0  0  0  0  0  0
   18.8755   19.2072   25.5263 H   0  0  0  0  0  0  0  0  0  0  0  0
   20.1929   18.3748   24.6871 H   0  0  0  0  0  0  0  0  0  0  0  0
  1  2  1  0  0  0  0
  1  3  1  0  0  0  0
  1  4  1  0  0  0  0
  1  5  1  0  0  0  0
  5  6  1  0  0  0  0
  5  7  1  0  0  0  0
  5  8  1  0  0  0  0
  8  9  1  0  0  0  0
  8 10  1  0  0  0  0
  8 11  1  0  0  0  0
 11 12  1  0  0  0  0
 11 13  1  0  0  0  0
 11 14  1  0  0  0  0
 14 15  1  0  0  0  0
 14 16  1  0  0  0  0
 14 17  1  0  0  0  0
 17 18  1  0  0  0  0
 17 19  1  0  0  0  0
 17 20  1  0  0  0  0
M  END
> <VConfSearch Rank>
779

> <Conf_Id>
2

> <Delta U+W>
0.994

> <U+W>
-10.784

> <U>
47.562

> <W>
-58.346

> <W(PB)>
-60.221

> <W(SA)>
1.875

> <Valence>
2.149

> <Coulomb>
45.034

> <VdW>
0.378

> <VdW6>
-5.599

> <VdW12>
5.977

> <Bond>
0.185

> <Angle>
0.935

> <Pdih>
1.028

> <Idih>
0.000

> <Tether>
0.000

$$$$
VeraChem MOL file


 20 19  0  0  0  0  0  0  0  0999 V2000     
   20.3424   16.8934   21.4464 N   0  3  0  0  0  0  0  0  0  0  0  0
   19.5831   16.6072   20.8206 H   0  0  0  0  0  0  0  0  0  0  0  0
   20.9527   17.5208   20.9145 H   0  0  0  0  0  0  0  0  0  0  0  0
   20.8879   16.0515   21.6584 H   0  0  0  0  0  0  0  0  0  0  0  0
   19.8163   17.5561   22.7047 C   0  0  0  0  0  0  0  0  0  0  0  0
   20.6702   17.8055   23.3399 H   0  0  0  0  0  0  0  0  0  0  0  0
   19.2019   16.8234   23.2349 H   0  0  0  0  0  0  0  0  0  0  0  0
   18.9815   18.8243   22.4345 C   0  0  0  0  0  0  0  0  0  0  0  0
   18.1087   18.5566   21.8244 H   0  0  0  0  0  0  0  0  0  0  0  0
   18.5793   19.1926   23.3869 H   0  0  0  0  0  0  0  0  0  0  0  0
   19.7693   19.9591   21.7283 C   0  0  0  0  0  0  0  0  0  0  0  0
   19.1070   20.8276   21.6087 H   0  0  0  0  0  0  0  0  0  0  0  0
   20.0290   19.6417   20.7095 H   0  0  0  0  0  0  0  0  0  0  0  0
   21.0609   20.4065   22.4594 C   0  0  0  0  0  0  0  0  0  0  0  0
   21.7791   19.5767   22.5049 H   0  0  0  0  0  0  0  0  0  0  0  0
   21.5461   21.1929   21.8644 H   0  0  0  0  0  0  0  0  0  0  0  0
   20.8027   20.9481   23.8838 C   0  0  0  0  0  0  0  0  0  0  0  0
   20.4228   20.1637   24.5502 H   0  0  0  0  0  0  0  0  0  0  0  0
   21.7322   21.3327   24.3232 H   0  0  0  0  0  0  0  0  0  0  0  0
   20.0742   21.7690   23.8680 H   0  0  0  0  0  0  0  0  0  0  0  0
  1  2  1  0  0  0  0
  1  3  1  0  0  0  0
  1  4  1  0  0  0  0
  1  5  1  0  0  0  0
  5  6  1  0  0  0  0
  5  7  1  0  0  0  0
  5  8  1  0  0  0  0
  8  9  1  0  0  0  0
  8 10  1  0  0  0  0
  8 11  1  0  0  0  0
 11 12  1  0  0  0  0
 11 13  1  0  0  0  0
 11 14  1  0  0  0  0
 14 15  1  0  0  0  0
 14 16  1  0  0  0  0
 14 17  1  0  0  0  0
 17 18  1  0  0  0  0
 17 19  1  0  0  0  0
 17 20  1  0  0  0  0
M  END
> <VConfSearch Rank>
780

> <Conf_Id>
1

> <Delta U+W>
1.032

> <U+W>
-10.746

> <U>
47.562

> <W>
-58.308

> <W(PB)>
-60.184

> <W(SA)>
1.877

> <Valence>
2.149

> <Coulomb>
45.035

> <VdW>
0.378

> <VdW6>
-5.599

> <VdW12>
5.978

> <Bond>
0.185

> <Angle>
0.935

> <Pdih>
1.028

> <Idih>
0.000

> <Tether>
0.000

$$$$
VeraChem MOL file


 20 19  0  0  0  0  0  0  0  0999 V2000     
   20.7589   18.1879   20.4087 N   0  3  0  0  0  0  0  0  0  0  0  0
   20.3726   17.2700   20.1672 H   0  0  0  0  0  0  0  0  0  0  0  0
   20.0131   18.8761   20.2713 H   0  0  0  0  0  0  0  0  0  0  0  0
   21.4884   18.3952   19.7186 H   0  0  0  0  0  0  0  0  0  0  0  0
   21.2994   18.2178   21.8253 C   0  0  0  0  0  0  0  0  0  0  0  0
   21.7205   19.2084   22.0036 H   0  0  0  0  0  0  0  0  0  0  0  0
   22.1145   17.4911   21.8812 H   0  0  0  0  0  0  0  0  0  0  0  0
   20.2460   17.8800   22.9019 C   0  0  0  0  0  0  0  0  0  0  0  0
   19.8412   16.8834   22.6812 H   0  0  0  0  0  0  0  0  0  0  0  0
   20.7394   17.7941   23.8790 H   0  0  0  0  0  0  0  0  0  0  0  0
   19.0701   18.8890   22.9995 C   0  0  0  0  0  0  0  0  0  0  0  0
   18.2160   18.3673   23.4531 H   0  0  0  0  0  0  0  0  0  0  0  0
   18.7318   19.1876   21.9989 H   0  0  0  0  0  0  0  0  0  0  0  0
   19.3541   20.1472   23.8600 C   0  0  0  0  0  0  0  0  0  0  0  0
   18.4268   20.7330   23.9297 H   0  0  0  0  0  0  0  0  0  0  0  0
   19.5992   19.8456   24.8879 H   0  0  0  0  0  0  0  0  0  0  0  0
   20.4719   21.0620   23.3126 C   0  0  0  0  0  0  0  0  0  0  0  0
   20.3168   21.2897   22.2502 H   0  0  0  0  0  0  0  0  0  0  0  0
   20.4890   22.0132   23.8601 H   0  0  0  0  0  0  0  0  0  0  0  0
   21.4597   20.6022   23.4342 H   0  0  0  0  0  0  0  0  0  0  0  0
  1  2  1  0  0  0  0
  1  3  1  0  0  0  0
  1  4  1  0  0  0  0
  1  5  1  0  0  0  0
  5  6  1  0  0  0  0
  5  7  1  0  0  0  0
  5  8  1  0  0  0  0
  8  9  1  0  0  0  0
  8 10  1  0  0  0  0
  8 11  1  0  0  0  0
 11 12  1  0  0  0  0
 11 13  1  0  0  0  0
 11 14  1  0  0  0  0
 14 15  1  0  0  0  0
 14 16  1  0  0  0  0
 14 17  1  0  0  0  0
 17 18  1  0  0  0  0
 17 19  1  0  0  0  0
 17 20  1  0  0  0  0
M  END
> <VConfSearch Rank>
781

> <Conf_Id>
80

> <Delta U+W>
2.920

> <U+W>
-8.857

> <U>
49.434

> <W>
-58.292

> <W(PB)>
-60.170

> <W(SA)>
1.879

> <Valence>
3.798

> <Coulomb>
45.253

> <VdW>
0.384

> <VdW6>
-5.595

> <VdW12>
5.979

> <Bond>
0.198

> <Angle>
1.368

> <Pdih>
2.231

> <Idih>
0.000

> <Tether>
0.000

$$$$
VeraChem MOL file


 20 19  0  0  0  0  0  0  0  0999 V2000     
   20.3790   17.0619   23.4053 N   0  3  0  0  0  0  0  0  0  0  0  0
   19.5515   16.6379   23.8359 H   0  0  0  0  0  0  0  0  0  0  0  0
   21.0741   16.3159   23.2974 H   0  0  0  0  0  0  0  0  0  0  0  0
   20.7615   17.7317   24.0789 H   0  0  0  0  0  0  0  0  0  0  0  0
   20.0504   17.7212   22.0797 C   0  0  0  0  0  0  0  0  0  0  0  0
   19.6903   16.9399   21.4048 H   0  0  0  0  0  0  0  0  0  0  0  0
   20.9765   18.1220   21.6648 H   0  0  0  0  0  0  0  0  0  0  0  0
   18.9830   18.8315   22.1831 C   0  0  0  0  0  0  0  0  0  0  0  0
   18.7072   19.1658   21.1743 H   0  0  0  0  0  0  0  0  0  0  0  0
   18.0736   18.3905   22.6124 H   0  0  0  0  0  0  0  0  0  0  0  0
   19.4004   20.0561   23.0413 C   0  0  0  0  0  0  0  0  0  0  0  0
   19.9209   19.7319   23.9516 H   0  0  0  0  0  0  0  0  0  0  0  0
   18.4832   20.5510   23.3896 H   0  0  0  0  0  0  0  0  0  0  0  0
   20.2471   21.1211   22.2978 C   0  0  0  0  0  0  0  0  0  0  0  0
   19.6812   21.5125   21.4409 H   0  0  0  0  0  0  0  0  0  0  0  0
   20.3993   21.9737   22.9745 H   0  0  0  0  0  0  0  0  0  0  0  0
   21.6284   20.6240   21.8173 C   0  0  0  0  0  0  0  0  0  0  0  0
   21.5321   19.9304   20.9737 H   0  0  0  0  0  0  0  0  0  0  0  0
   22.2393   21.4684   21.4728 H   0  0  0  0  0  0  0  0  0  0  0  0
   22.1756   20.1226   22.6259 H   0  0  0  0  0  0  0  0  0  0  0  0
  1  2  1  0  0  0  0
  1  3  1  0  0  0  0
  1  4  1  0  0  0  0
  1  5  1  0  0  0  0
  5  6  1  0  0  0  0
  5  7  1  0  0  0  0
  5  8  1  0  0  0  0
  8  9  1  0  0  0  0
  8 10  1  0  0  0  0
  8 11  1  0  0  0  0
 11 12  1  0  0  0  0
 11 13  1  0  0  0  0
 11 14  1  0  0  0  0
 14 15  1  0  0  0  0
 14 16  1  0  0  0  0
 14 17  1  0  0  0  0
 17 18  1  0  0  0  0
 17 19  1  0  0  0  0
 17 20  1  0  0  0  0
M  END
> <VConfSearch Rank>
782

> <Conf_Id>
65

> <Delta U+W>
2.949

> <U+W>
-8.829

> <U>
49.435

> <W>
-58.263

> <W(PB)>
-60.125

> <W(SA)>
1.862

> <Valence>
3.797

> <Coulomb>
45.253

> <VdW>
0.384

> <VdW6>
-5.596

> <VdW12>
5.980

> <Bond>
0.198

> <Angle>
1.369

> <Pdih>
2.230

> <Idih>
0.000

> <Tether>
0.000

$$$$
VeraChem MOL file


 20 19  0  0  0  0  0  0  0  0999 V2000     
   19.7536   19.6831   24.3419 N   0  3  0  0  0  0  0  0  0  0  0  0
   18.9686   20.0272   24.9050 H   0  0  0  0  0  0  0  0  0  0  0  0
   19.4685   18.7871   23.9349 H   0  0  0  0  0  0  0  0  0  0  0  0
   20.5242   19.4923   24.9901 H   0  0  0  0  0  0  0  0  0  0  0  0
   20.1546   20.6757   23.2679 C   0  0  0  0  0  0  0  0  0  0  0  0
   20.4453   21.5982   23.7780 H   0  0  0  0  0  0  0  0  0  0  0  0
   19.2814   20.8924   22.6468 H   0  0  0  0  0  0  0  0  0  0  0  0
   21.3237   20.2011   22.3811 C   0  0  0  0  0  0  0  0  0  0  0  0
   21.7982   21.0925   21.9496 H   0  0  0  0  0  0  0  0  0  0  0  0
   22.0932   19.7254   23.0035 H   0  0  0  0  0  0  0  0  0  0  0  0
   20.9267   19.2626   21.2100 C   0  0  0  0  0  0  0  0  0  0  0  0
   21.8392   19.0506   20.6356 H   0  0  0  0  0  0  0  0  0  0  0  0
   20.2597   19.7920   20.5155 H   0  0  0  0  0  0  0  0  0  0  0  0
   20.2961   17.9090   21.6252 C   0  0  0  0  0  0  0  0  0  0  0  0
   20.6308   17.1358   20.9192 H   0  0  0  0  0  0  0  0  0  0  0  0
   20.6734   17.5944   22.6076 H   0  0  0  0  0  0  0  0  0  0  0  0
   18.7491   17.9280   21.6064 C   0  0  0  0  0  0  0  0  0  0  0  0
   18.3317   18.7228   22.2338 H   0  0  0  0  0  0  0  0  0  0  0  0
   18.3775   18.0860   20.5855 H   0  0  0  0  0  0  0  0  0  0  0  0
   18.3461   16.9699   21.9597 H   0  0  0  0  0  0  0  0  0  0  0  0
  1  2  1  0  0  0  0
  1  3  1  0  0  0  0
  1  4  1  0  0  0  0
  1  5  1  0  0  0  0
  5  6  1  0  0  0  0
  5  7  1  0  0  0  0
  5  8  1  0  0  0  0
  8  9  1  0  0  0  0
  8 10  1  0  0  0  0
  8 11  1  0  0  0  0
 11 12  1  0  0  0  0
 11 13  1  0  0  0  0
 11 14  1  0  0  0  0
 14 15  1  0  0  0  0
 14 16  1  0  0  0  0
 14 17  1  0  0  0  0
 17 18  1  0  0  0  0
 17 19  1  0  0  0  0
 17 20  1  0  0  0  0
M  END
> <VConfSearch Rank>
783

> <Conf_Id>
77

> <Delta U+W>
5.366

> <U+W>
-6.412

> <U>
51.542

> <W>
-57.954

> <W(PB)>
-59.811

> <W(SA)>
1.857

> <Valence>
5.347

> <Coulomb>
45.870

> <VdW>
0.325

> <VdW6>
-6.161

> <VdW12>
6.486

> <Bond>
0.201

> <Angle>
1.484

> <Pdih>
3.662

> <Idih>
0.000

> <Tether>
0.000

$$$$
VeraChem MOL file


 20 19  0  0  0  0  0  0  0  0999 V2000     
   18.7230   18.5963   21.2270 N   0  3  0  0  0  0  0  0  0  0  0  0
   18.0346   19.3435   21.0918 H   0  0  0  0  0  0  0  0  0  0  0  0
   19.6239   18.9465   20.8875 H   0  0  0  0  0  0  0  0  0  0  0  0
   18.4457   17.8211   20.6155 H   0  0  0  0  0  0  0  0  0  0  0  0
   18.8084   18.1662   22.6787 C   0  0  0  0  0  0  0  0  0  0  0  0
   19.5049   17.3271   22.7555 H   0  0  0  0  0  0  0  0  0  0  0  0
   17.8152   17.8098   22.9652 H   0  0  0  0  0  0  0  0  0  0  0  0
   19.2362   19.2922   23.6417 C   0  0  0  0  0  0  0  0  0  0  0  0
   18.7217   20.2249   23.3751 H   0  0  0  0  0  0  0  0  0  0  0  0
   18.8751   19.0286   24.6446 H   0  0  0  0  0  0  0  0  0  0  0  0
   20.7667   19.5338   23.7383 C   0  0  0  0  0  0  0  0  0  0  0  0
   21.2630   18.6374   24.1351 H   0  0  0  0  0  0  0  0  0  0  0  0
   20.9284   20.3164   24.4926 H   0  0  0  0  0  0  0  0  0  0  0  0
   21.4543   19.9849   22.4244 C   0  0  0  0  0  0  0  0  0  0  0  0
   20.7494   20.5428   21.7935 H   0  0  0  0  0  0  0  0  0  0  0  0
   22.2538   20.6967   22.6744 H   0  0  0  0  0  0  0  0  0  0  0  0
   22.0926   18.8141   21.6397 C   0  0  0  0  0  0  0  0  0  0  0  0
   22.5181   19.1698   20.6922 H   0  0  0  0  0  0  0  0  0  0  0  0
   22.9082   18.3610   22.2182 H   0  0  0  0  0  0  0  0  0  0  0  0
   21.3730   18.0208   21.4109 H   0  0  0  0  0  0  0  0  0  0  0  0
  1  2  1  0  0  0  0
  1  3  1  0  0  0  0
  1  4  1  0  0  0  0
  1  5  1  0  0  0  0
  5  6  1  0  0  0  0
  5  7  1  0  0  0  0
  5  8  1  0  0  0  0
  8  9  1  0  0  0  0
  8 10  1  0  0  0  0
  8 11  1  0  0  0  0
 11 12  1  0  0  0  0
 11 13  1  0  0  0  0
 11 14  1  0  0  0  0
 14 15  1  0  0  0  0
 14 16  1  0  0  0  0
 14 17  1  0  0  0  0
 17 18  1  0  0  0  0
 17 19  1  0  0  0  0
 17 20  1  0  0  0  0
M  END
> <VConfSearch Rank>
784

> <Conf_Id>
67

> <Delta U+W>
5.353

> <U+W>
-6.425

> <U>
51.541

> <W>
-57.966

> <W(PB)>
-59.821

> <W(SA)>
1.855

> <Valence>
5.347

> <Coulomb>
45.870

> <VdW>
0.325

> <VdW6>
-6.161

> <VdW12>
6.486

> <Bond>
0.201

> <Angle>
1.485

> <Pdih>
3.662

> <Idih>
0.000

> <Tether>
0.000

$$$$
VeraChem MOL file


 20 19  0  0  0  0  0  0  0  0999 V2000     
   17.8700   17.9002   20.5598 N   0  3  0  0  0  0  0  0  0  0  0  0
   18.4386   17.1805   20.1024 H   0  0  0  0  0  0  0  0  0  0  0  0
   16.9277   17.5103   20.6676 H   0  0  0  0  0  0  0  0  0  0  0  0
   17.7936   18.6849   19.9049 H   0  0  0  0  0  0  0  0  0  0  0  0
   18.4584   18.3270   21.8895 C   0  0  0  0  0  0  0  0  0  0  0  0
   18.4819   17.4519   22.5446 H   0  0  0  0  0  0  0  0  0  0  0  0
   17.7886   19.0693   22.3322 H   0  0  0  0  0  0  0  0  0  0  0  0
   19.8743   18.9173   21.7629 C   0  0  0  0  0  0  0  0  0  0  0  0
   20.5397   18.1743   21.3033 H   0  0  0  0  0  0  0  0  0  0  0  0
   19.8488   19.7861   21.0916 H   0  0  0  0  0  0  0  0  0  0  0  0
   20.4367   19.3390   23.1386 C   0  0  0  0  0  0  0  0  0  0  0  0
   20.4559   18.4686   23.8093 H   0  0  0  0  0  0  0  0  0  0  0  0
   19.7659   20.0786   23.5979 H   0  0  0  0  0  0  0  0  0  0  0  0
   21.8584   19.9332   23.0238 C   0  0  0  0  0  0  0  0  0  0  0  0
   22.5333   19.1959   22.5667 H   0  0  0  0  0  0  0  0  0  0  0  0
   21.8434   20.8056   22.3554 H   0  0  0  0  0  0  0  0  0  0  0  0
   22.4163   20.3531   24.4006 C   0  0  0  0  0  0  0  0  0  0  0  0
   22.4759   19.4939   25.0814 H   0  0  0  0  0  0  0  0  0  0  0  0
   23.4257   20.7722   24.2985 H   0  0  0  0  0  0  0  0  0  0  0  0
   21.7807   21.1163   24.8683 H   0  0  0  0  0  0  0  0  0  0  0  0
  1  2  1  0  0  0  0
  1  3  1  0  0  0  0
  1  4  1  0  0  0  0
  1  5  1  0  0  0  0
  5  6  1  0  0  0  0
  5  7  1  0  0  0  0
  5  8  1  0  0  0  0
  8  9  1  0  0  0  0
  8 10  1  0  0  0  0
  8 11  1  0  0  0  0
 11 12  1  0  0  0  0
 11 13  1  0  0  0  0
 11 14  1  0  0  0  0
 14 15  1  0  0  0  0
 14 16  1  0  0  0  0
 14 17  1  0  0  0  0
 17 18  1  0  0  0  0
 17 19  1  0  0  0  0
 17 20  1  0  0  0  0
M  END
> <VConfSearch Rank>
785

> <Conf_Id>
72

> <Delta U+W>
0.000

> <U+W>
-11.778

> <U>
45.772

> <W>
-57.550

> <W(PB)>
-59.511

> <W(SA)>
1.961

> <Valence>
1.299

> <Coulomb>
44.177

> <VdW>
0.297

> <VdW6>
-3.490

> <VdW12>
3.786

> <Bond>
0.096

> <Angle>
0.381

> <Pdih>
0.822

> <Idih>
0.000

> <Tether>
0.000

$$$$
VeraChem MOL file


 20 19  0  0  0  0  0  0  0  0999 V2000     
   20.6491   17.3141   20.1915 N   0  3  0  0  0  0  0  0  0  0  0  0
   19.9920   17.8209   19.5901 H   0  0  0  0  0  0  0  0  0  0  0  0
   21.5892   17.6525   19.9629 H   0  0  0  0  0  0  0  0  0  0  0  0
   20.6112   16.3290   19.9093 H   0  0  0  0  0  0  0  0  0  0  0  0
   20.3249   17.4916   21.6612 C   0  0  0  0  0  0  0  0  0  0  0  0
   21.0427   16.9026   22.2385 H   0  0  0  0  0  0  0  0  0  0  0  0
   19.3257   17.0843   21.8380 H   0  0  0  0  0  0  0  0  0  0  0  0
   20.3736   18.9605   22.1186 C   0  0  0  0  0  0  0  0  0  0  0  0
   21.3738   19.3701   21.9245 H   0  0  0  0  0  0  0  0  0  0  0  0
   19.6628   19.5449   21.5209 H   0  0  0  0  0  0  0  0  0  0  0  0
   20.0391   19.0939   23.6231 C   0  0  0  0  0  0  0  0  0  0  0  0
   20.7120   18.4427   24.1983 H   0  0  0  0  0  0  0  0  0  0  0  0
   19.0204   18.7266   23.8098 H   0  0  0  0  0  0  0  0  0  0  0  0
   20.1746   20.5395   24.1604 C   0  0  0  0  0  0  0  0  0  0  0  0
   20.0235   20.5267   25.2489 H   0  0  0  0  0  0  0  0  0  0  0  0
   21.1991   20.9024   23.9972 H   0  0  0  0  0  0  0  0  0  0  0  0
   19.1667   21.5271   23.5292 C   0  0  0  0  0  0  0  0  0  0  0  0
   18.1353   21.1728   23.6541 H   0  0  0  0  0  0  0  0  0  0  0  0
   19.2430   22.5120   24.0079 H   0  0  0  0  0  0  0  0  0  0  0  0
   19.3554   21.6667   22.4576 H   0  0  0  0  0  0  0  0  0  0  0  0
  1  2  1  0  0  0  0
  1  3  1  0  0  0  0
  1  4  1  0  0  0  0
  1  5  1  0  0  0  0
  5  6  1  0  0  0  0
  5  7  1  0  0  0  0
  5  8  1  0  0  0  0
  8  9  1  0  0  0  0
  8 10  1  0  0  0  0
  8 11  1  0  0  0  0
 11 12  1  0  0  0  0
 11 13  1  0  0  0  0
 11 14  1  0  0  0  0
 14 15  1  0  0  0  0
 14 16  1  0  0  0  0
 14 17  1  0  0  0  0
 17 18  1  0  0  0  0
 17 19  1  0  0  0  0
 17 20  1  0  0  0  0
M  END
> <VConfSearch Rank>
786

> <Conf_Id>
42

> <Delta U+W>
0.508

> <U+W>
-11.270

> <U>
46.486

> <W>
-57.756

> <W(PB)>
-59.705

> <W(SA)>
1.949

> <Valence>
1.806

> <Coulomb>
44.248

> <VdW>
0.433

> <VdW6>
-4.089

> <VdW12>
4.522

> <Bond>
0.131

> <Angle>
0.628

> <Pdih>
1.047

> <Idih>
0.000

> <Tether>
0.000

$$$$
VeraChem MOL file


 20 19  0  0  0  0  0  0  0  0999 V2000     
   19.5416   19.9959   25.2687 N   0  3  0  0  0  0  0  0  0  0  0  0
   18.5423   19.7680   25.2711 H   0  0  0  0  0  0  0  0  0  0  0  0
   20.0345   19.1938   25.6738 H   0  0  0  0  0  0  0  0  0  0  0  0
   19.6689   20.7808   25.9162 H   0  0  0  0  0  0  0  0  0  0  0  0
   20.0440   20.3263   23.8777 C   0  0  0  0  0  0  0  0  0  0  0  0
   21.1031   20.5871   23.9544 H   0  0  0  0  0  0  0  0  0  0  0  0
   19.4991   21.2049   23.5220 H   0  0  0  0  0  0  0  0  0  0  0  0
   19.8671   19.1681   22.8793 C   0  0  0  0  0  0  0  0  0  0  0  0
   20.4029   18.2872   23.2549 H   0  0  0  0  0  0  0  0  0  0  0  0
   18.8043   18.8990   22.8174 H   0  0  0  0  0  0  0  0  0  0  0  0
   20.3905   19.5497   21.4745 C   0  0  0  0  0  0  0  0  0  0  0  0
   21.4648   19.7745   21.5281 H   0  0  0  0  0  0  0  0  0  0  0  0
   19.8975   20.4763   21.1486 H   0  0  0  0  0  0  0  0  0  0  0  0
   20.1428   18.4579   20.4052 C   0  0  0  0  0  0  0  0  0  0  0  0
   19.0668   18.2471   20.3313 H   0  0  0  0  0  0  0  0  0  0  0  0
   20.4467   18.8496   19.4243 H   0  0  0  0  0  0  0  0  0  0  0  0
   20.9123   17.1451   20.6773 C   0  0  0  0  0  0  0  0  0  0  0  0
   20.5572   16.6508   21.5899 H   0  0  0  0  0  0  0  0  0  0  0  0
   20.7753   16.4405   19.8467 H   0  0  0  0  0  0  0  0  0  0  0  0
   21.9886   17.3327   20.7836 H   0  0  0  0  0  0  0  0  0  0  0  0
  1  2  1  0  0  0  0
  1  3  1  0  0  0  0
  1  4  1  0  0  0  0
  1  5  1  0  0  0  0
  5  6  1  0  0  0  0
  5  7  1  0  0  0  0
  5  8  1  0  0  0  0
  8  9  1  0  0  0  0
  8 10  1  0  0  0  0
  8 11  1  0  0  0  0
 11 12  1  0  0  0  0
 11 13  1  0  0  0  0
 11 14  1  0  0  0  0
 14 15  1  0  0  0  0
 14 16  1  0  0  0  0
 14 17  1  0  0  0  0
 17 18  1  0  0  0  0
 17 19  1  0  0  0  0
 17 20  1  0  0  0  0
M  END
> <VConfSearch Rank>
787

> <Conf_Id>
41

> <Delta U+W>
0.515

> <U+W>
-11.263

> <U>
46.486

> <W>
-57.749

> <W(PB)>
-59.685

> <W(SA)>
1.936

> <Valence>
1.806

> <Coulomb>
44.248

> <VdW>
0.433

> <VdW6>
-4.089

> <VdW12>
4.522

> <Bond>
0.131

> <Angle>
0.628

> <Pdih>
1.047

> <Idih>
0.000

> <Tether>
0.000

$$$$
VeraChem MOL file


 20 19  0  0  0  0  0  0  0  0999 V2000     
   20.5979   16.4077   22.6935 N   0  3  0  0  0  0  0  0  0  0  0  0
   20.9574   15.5924   23.2010 H   0  0  0  0  0  0  0  0  0  0  0  0
   19.6041   16.4898   22.9272 H   0  0  0  0  0  0  0  0  0  0  0  0
   20.6569   16.1864   21.6947 H   0  0  0  0  0  0  0  0  0  0  0  0
   21.3659   17.6691   23.0390 C   0  0  0  0  0  0  0  0  0  0  0  0
   22.4186   17.4898   22.8038 H   0  0  0  0  0  0  0  0  0  0  0  0
   21.2820   17.8339   24.1166 H   0  0  0  0  0  0  0  0  0  0  0  0
   20.8816   18.9222   22.2834 C   0  0  0  0  0  0  0  0  0  0  0  0
   21.5715   19.7437   22.5133 H   0  0  0  0  0  0  0  0  0  0  0  0
   20.9506   18.7472   21.2016 H   0  0  0  0  0  0  0  0  0  0  0  0
   19.4361   19.3299   22.6650 C   0  0  0  0  0  0  0  0  0  0  0  0
   19.3800   19.5254   23.7449 H   0  0  0  0  0  0  0  0  0  0  0  0
   18.7555   18.4913   22.4671 H   0  0  0  0  0  0  0  0  0  0  0  0
   18.9187   20.5654   21.8886 C   0  0  0  0  0  0  0  0  0  0  0  0
   18.9600   20.3697   20.8079 H   0  0  0  0  0  0  0  0  0  0  0  0
   17.8577   20.7155   22.1326 H   0  0  0  0  0  0  0  0  0  0  0  0
   19.6911   21.8649   22.2118 C   0  0  0  0  0  0  0  0  0  0  0  0
   20.7324   21.8116   21.8711 H   0  0  0  0  0  0  0  0  0  0  0  0
   19.2249   22.7232   21.7109 H   0  0  0  0  0  0  0  0  0  0  0  0
   19.6915   22.0665   23.2909 H   0  0  0  0  0  0  0  0  0  0  0  0
  1  2  1  0  0  0  0
  1  3  1  0  0  0  0
  1  4  1  0  0  0  0
  1  5  1  0  0  0  0
  5  6  1  0  0  0  0
  5  7  1  0  0  0  0
  5  8  1  0  0  0  0
  8  9  1  0  0  0  0
  8 10  1  0  0  0  0
  8 11  1  0  0  0  0
 11 12  1  0  0  0  0
 11 13  1  0  0  0  0
 11 14  1  0  0  0  0
 14 15  1  0  0  0  0
 14 16  1  0  0  0  0
 14 17  1  0  0  0  0
 17 18  1  0  0  0  0
 17 19  1  0  0  0  0
 17 20  1  0  0  0  0
M  END
> <VConfSearch Rank>
788

> <Conf_Id>
33

> <Delta U+W>
0.703

> <U+W>
-11.075

> <U>
47.080

> <W>
-58.154

> <W(PB)>
-60.053

> <W(SA)>
1.899

> <Valence>
1.943

> <Coulomb>
44.572

> <VdW>
0.565

> <VdW6>
-4.575

> <VdW12>
5.139

> <Bond>
0.158

> <Angle>
0.700

> <Pdih>
1.085

> <Idih>
0.000

> <Tether>
0.000

$$$$
VeraChem MOL file


 20 19  0  0  0  0  0  0  0  0999 V2000     
   21.1036   19.7881   24.9731 N   0  3  0  0  0  0  0  0  0  0  0  0
   21.4459   20.4713   25.6569 H   0  0  0  0  0  0  0  0  0  0  0  0
   20.6477   19.0389   25.5034 H   0  0  0  0  0  0  0  0  0  0  0  0
   21.9273   19.3808   24.5208 H   0  0  0  0  0  0  0  0  0  0  0  0
   20.1619   20.4220   23.9674 C   0  0  0  0  0  0  0  0  0  0  0  0
   20.7007   21.2239   23.4555 H   0  0  0  0  0  0  0  0  0  0  0  0
   19.3355   20.8705   24.5256 H   0  0  0  0  0  0  0  0  0  0  0  0
   19.5973   19.4318   22.9297 C   0  0  0  0  0  0  0  0  0  0  0  0
   19.0718   18.6185   23.4474 H   0  0  0  0  0  0  0  0  0  0  0  0
   18.8452   19.9610   22.3315 H   0  0  0  0  0  0  0  0  0  0  0  0
   20.6920   18.8505   21.9998 C   0  0  0  0  0  0  0  0  0  0  0  0
   21.4608   18.3538   22.6062 H   0  0  0  0  0  0  0  0  0  0  0  0
   21.1982   19.6684   21.4683 H   0  0  0  0  0  0  0  0  0  0  0  0
   20.1492   17.8258   20.9741 C   0  0  0  0  0  0  0  0  0  0  0  0
   20.9989   17.3816   20.4368 H   0  0  0  0  0  0  0  0  0  0  0  0
   19.6537   16.9985   21.5014 H   0  0  0  0  0  0  0  0  0  0  0  0
   19.1766   18.4418   19.9423 C   0  0  0  0  0  0  0  0  0  0  0  0
   19.6377   19.2920   19.4231 H   0  0  0  0  0  0  0  0  0  0  0  0
   18.8987   17.6975   19.1849 H   0  0  0  0  0  0  0  0  0  0  0  0
   18.2506   18.7891   20.4169 H   0  0  0  0  0  0  0  0  0  0  0  0
  1  2  1  0  0  0  0
  1  3  1  0  0  0  0
  1  4  1  0  0  0  0
  1  5  1  0  0  0  0
  5  6  1  0  0  0  0
  5  7  1  0  0  0  0
  5  8  1  0  0  0  0
  8  9  1  0  0  0  0
  8 10  1  0  0  0  0
  8 11  1  0  0  0  0
 11 12  1  0  0  0  0
 11 13  1  0  0  0  0
 11 14  1  0  0  0  0
 14 15  1  0  0  0  0
 14 16  1  0  0  0  0
 14 17  1  0  0  0  0
 17 18  1  0  0  0  0
 17 19  1  0  0  0  0
 17 20  1  0  0  0  0
M  END
> <VConfSearch Rank>
789

> <Conf_Id>
24

> <Delta U+W>
0.847

> <U+W>
-10.931

> <U>
47.080

> <W>
-58.011

> <W(PB)>
-59.914

> <W(SA)>
1.903

> <Valence>
1.943

> <Coulomb>
44.572

> <VdW>
0.565

> <VdW6>
-4.575

> <VdW12>
5.140

> <Bond>
0.158

> <Angle>
0.700

> <Pdih>
1.085

> <Idih>
0.000

> <Tether>
0.000

$$$$
VeraChem MOL file


 20 19  0  0  0  0  0  0  0  0999 V2000     
   18.3782   17.1140   22.2217 N   0  3  0  0  0  0  0  0  0  0  0  0
   18.2917   16.4776   21.4223 H   0  0  0  0  0  0  0  0  0  0  0  0
   18.8465   16.5913   22.9685 H   0  0  0  0  0  0  0  0  0  0  0  0
   17.4269   17.3151   22.5455 H   0  0  0  0  0  0  0  0  0  0  0  0
   19.1309   18.3776   21.8567 C   0  0  0  0  0  0  0  0  0  0  0  0
   18.5943   18.8665   21.0392 H   0  0  0  0  0  0  0  0  0  0  0  0
   20.1199   18.0862   21.4934 H   0  0  0  0  0  0  0  0  0  0  0  0
   19.2793   19.3560   23.0371 C   0  0  0  0  0  0  0  0  0  0  0  0
   18.2821   19.6095   23.4208 H   0  0  0  0  0  0  0  0  0  0  0  0
   19.8098   18.8632   23.8618 H   0  0  0  0  0  0  0  0  0  0  0  0
   20.0101   20.6640   22.6433 C   0  0  0  0  0  0  0  0  0  0  0  0
   20.0703   21.3176   23.5245 H   0  0  0  0  0  0  0  0  0  0  0  0
   19.4001   21.2054   21.9069 H   0  0  0  0  0  0  0  0  0  0  0  0
   21.4333   20.4647   22.0619 C   0  0  0  0  0  0  0  0  0  0  0  0
   21.3833   19.9013   21.1202 H   0  0  0  0  0  0  0  0  0  0  0  0
   21.8465   21.4494   21.8020 H   0  0  0  0  0  0  0  0  0  0  0  0
   22.4028   19.7602   23.0381 C   0  0  0  0  0  0  0  0  0  0  0  0
   23.4160   19.7274   22.6170 H   0  0  0  0  0  0  0  0  0  0  0  0
   22.4549   20.2932   23.9963 H   0  0  0  0  0  0  0  0  0  0  0  0
   22.0945   18.7260   23.2357 H   0  0  0  0  0  0  0  0  0  0  0  0
  1  2  1  0  0  0  0
  1  3  1  0  0  0  0
  1  4  1  0  0  0  0
  1  5  1  0  0  0  0
  5  6  1  0  0  0  0
  5  7  1  0  0  0  0
  5  8  1  0  0  0  0
  8  9  1  0  0  0  0
  8 10  1  0  0  0  0
  8 11  1  0  0  0  0
 11 12  1  0  0  0  0
 11 13  1  0  0  0  0
 11 14  1  0  0  0  0
 14 15  1  0  0  0  0
 14 16  1  0  0  0  0
 14 17  1  0  0  0  0
 17 18  1  0  0  0  0
 17 19  1  0  0  0  0
 17 20  1  0  0  0  0
M  END
> <VConfSearch Rank>
790

> <Conf_Id>
64

> <Delta U+W>
0.707

> <U+W>
-11.070

> <U>
47.077

> <W>
-58.148

> <W(PB)>
-60.054

> <W(SA)>
1.906

> <Valence>
2.039

> <Coulomb>
44.655

> <VdW>
0.383

> <VdW6>
-4.912

> <VdW12>
5.295

> <Bond>
0.159

> <Angle>
0.856

> <Pdih>
1.024

> <Idih>
0.000

> <Tether>
0.000

$$$$
VeraChem MOL file


 20 19  0  0  0  0  0  0  0  0999 V2000     
   18.1104   17.5217   23.3817 N   0  3  0  0  0  0  0  0  0  0  0  0
   17.4036   17.3148   22.6691 H   0  0  0  0  0  0  0  0  0  0  0  0
   18.7149   16.6974   23.4548 H   0  0  0  0  0  0  0  0  0  0  0  0
   17.6150   17.6075   24.2754 H   0  0  0  0  0  0  0  0  0  0  0  0
   18.8974   18.7739   23.0516 C   0  0  0  0  0  0  0  0  0  0  0  0
   19.6068   18.9488   23.8648 H   0  0  0  0  0  0  0  0  0  0  0  0
   18.1982   19.6138   23.0185 H   0  0  0  0  0  0  0  0  0  0  0  0
   19.6549   18.6776   21.7139 C   0  0  0  0  0  0  0  0  0  0  0  0
   20.3505   17.8292   21.7427 H   0  0  0  0  0  0  0  0  0  0  0  0
   18.9385   18.4607   20.9105 H   0  0  0  0  0  0  0  0  0  0  0  0
   20.4198   19.9783   21.3631 C   0  0  0  0  0  0  0  0  0  0  0  0
   19.6939   20.7899   21.2149 H   0  0  0  0  0  0  0  0  0  0  0  0
   20.9249   19.8449   20.3964 H   0  0  0  0  0  0  0  0  0  0  0  0
   21.4604   20.4270   22.4209 C   0  0  0  0  0  0  0  0  0  0  0  0
   21.9252   21.3627   22.0800 H   0  0  0  0  0  0  0  0  0  0  0  0
   20.9591   20.6679   23.3683 H   0  0  0  0  0  0  0  0  0  0  0  0
   22.5713   19.3820   22.6719 C   0  0  0  0  0  0  0  0  0  0  0  0
   23.0749   19.1085   21.7357 H   0  0  0  0  0  0  0  0  0  0  0  0
   23.3300   19.7841   23.3558 H   0  0  0  0  0  0  0  0  0  0  0  0
   22.1693   18.4680   23.1264 H   0  0  0  0  0  0  0  0  0  0  0  0
  1  2  1  0  0  0  0
  1  3  1  0  0  0  0
  1  4  1  0  0  0  0
  1  5  1  0  0  0  0
  5  6  1  0  0  0  0
  5  7  1  0  0  0  0
  5  8  1  0  0  0  0
  8  9  1  0  0  0  0
  8 10  1  0  0  0  0
  8 11  1  0  0  0  0
 11 12  1  0  0  0  0
 11 13  1  0  0  0  0
 11 14  1  0  0  0  0
 14 15  1  0  0  0  0
 14 16  1  0  0  0  0
 14 17  1  0  0  0  0
 17 18  1  0  0  0  0
 17 19  1  0  0  0  0
 17 20  1  0  0  0  0
M  END
> <VConfSearch Rank>
791

> <Conf_Id>
22

> <Delta U+W>
0.731

> <U+W>
-11.047

> <U>
47.078

> <W>
-58.125

> <W(PB)>
-60.031

> <W(SA)>
1.906

> <Valence>
2.039

> <Coulomb>
44.655

> <VdW>
0.383

> <VdW6>
-4.913

> <VdW12>
5.296

> <Bond>
0.159

> <Angle>
0.856

> <Pdih>
1.024

> <Idih>
0.000

> <Tether>
0.000

$$$$
VeraChem MOL file


 20 19  0  0  0  0  0  0  0  0999 V2000     
   20.3581   21.9463   22.5755 N   0  3  0  0  0  0  0  0  0  0  0  0
   20.6164   22.1687   21.6090 H   0  0  0  0  0  0  0  0  0  0  0  0
   19.4592   22.4029   22.7595 H   0  0  0  0  0  0  0  0  0  0  0  0
   21.0509   22.3998   23.1803 H   0  0  0  0  0  0  0  0  0  0  0  0
   20.2936   20.4513   22.8149 C   0  0  0  0  0  0  0  0  0  0  0  0
   20.0415   20.2875   23.8661 H   0  0  0  0  0  0  0  0  0  0  0  0
   21.2892   20.0424   22.6282 H   0  0  0  0  0  0  0  0  0  0  0  0
   19.2657   19.7395   21.9174 C   0  0  0  0  0  0  0  0  0  0  0  0
   18.2945   20.2402   22.0273 H   0  0  0  0  0  0  0  0  0  0  0  0
   19.5568   19.8556   20.8650 H   0  0  0  0  0  0  0  0  0  0  0  0
   19.0818   18.2356   22.2434 C   0  0  0  0  0  0  0  0  0  0  0  0
   18.2675   17.8580   21.6094 H   0  0  0  0  0  0  0  0  0  0  0  0
   18.7336   18.1120   23.2782 H   0  0  0  0  0  0  0  0  0  0  0  0
   20.3330   17.3548   21.9908 C   0  0  0  0  0  0  0  0  0  0  0  0
   19.9952   16.3364   21.7525 H   0  0  0  0  0  0  0  0  0  0  0  0
   20.8750   17.7081   21.1025 H   0  0  0  0  0  0  0  0  0  0  0  0
   21.2904   17.2634   23.2023 C   0  0  0  0  0  0  0  0  0  0  0  0
   21.7440   18.2293   23.4477 H   0  0  0  0  0  0  0  0  0  0  0  0
   20.7639   16.8979   24.0935 H   0  0  0  0  0  0  0  0  0  0  0  0
   22.1084   16.5628   22.9901 H   0  0  0  0  0  0  0  0  0  0  0  0
  1  2  1  0  0  0  0
  1  3  1  0  0  0  0
  1  4  1  0  0  0  0
  1  5  1  0  0  0  0
  5  6  1  0  0  0  0
  5  7  1  0  0  0  0
  5  8  1  0  0  0  0
  8  9  1  0  0  0  0
  8 10  1  0  0  0  0
  8 11  1  0  0  0  0
 11 12  1  0  0  0  0
 11 13  1  0  0  0  0
 11 14  1  0  0  0  0
 14 15  1  0  0  0  0
 14 16  1  0  0  0  0
 14 17  1  0  0  0  0
 17 18  1  0  0  0  0
 17 19  1  0  0  0  0
 17 20  1  0  0  0  0
M  END
> <VConfSearch Rank>
792

> <Conf_Id>
61

> <Delta U+W>
2.669

> <U+W>
-9.108

> <U>
48.916

> <W>
-58.025

> <W(PB)>
-59.935

> <W(SA)>
1.911

> <Valence>
3.785

> <Coulomb>
44.716

> <VdW>
0.415

> <VdW6>
-4.836

> <VdW12>
5.251

> <Bond>
0.175

> <Angle>
1.195

> <Pdih>
2.415

> <Idih>
0.000

> <Tether>
0.000

$$$$
VeraChem MOL file


 20 19  0  0  0  0  0  0  0  0999 V2000     
   19.8236   19.7399   20.2594 N   0  3  0  0  0  0  0  0  0  0  0  0
   20.1310   19.6201   19.2884 H   0  0  0  0  0  0  0  0  0  0  0  0
   19.1598   20.5207   20.2660 H   0  0  0  0  0  0  0  0  0  0  0  0
   20.6414   20.0341   20.7994 H   0  0  0  0  0  0  0  0  0  0  0  0
   19.2048   18.4707   20.8133 C   0  0  0  0  0  0  0  0  0  0  0  0
   19.9346   17.6611   20.7285 H   0  0  0  0  0  0  0  0  0  0  0  0
   18.3532   18.2263   20.1724 H   0  0  0  0  0  0  0  0  0  0  0  0
   18.7165   18.5852   22.2727 C   0  0  0  0  0  0  0  0  0  0  0  0
   18.2045   19.5448   22.4242 H   0  0  0  0  0  0  0  0  0  0  0  0
   17.9551   17.8100   22.4315 H   0  0  0  0  0  0  0  0  0  0  0  0
   19.8234   18.3887   23.3403 C   0  0  0  0  0  0  0  0  0  0  0  0
   20.2856   17.4003   23.2107 H   0  0  0  0  0  0  0  0  0  0  0  0
   19.3453   18.3747   24.3296 H   0  0  0  0  0  0  0  0  0  0  0  0
   20.9225   19.4770   23.3325 C   0  0  0  0  0  0  0  0  0  0  0  0
   21.5128   19.4087   22.4101 H   0  0  0  0  0  0  0  0  0  0  0  0
   20.4612   20.4743   23.3534 H   0  0  0  0  0  0  0  0  0  0  0  0
   21.8758   19.3307   24.5378 C   0  0  0  0  0  0  0  0  0  0  0  0
   22.6548   20.1037   24.5123 H   0  0  0  0  0  0  0  0  0  0  0  0
   21.3327   19.4324   25.4865 H   0  0  0  0  0  0  0  0  0  0  0  0
   22.3726   18.3517   24.5318 H   0  0  0  0  0  0  0  0  0  0  0  0
  1  2  1  0  0  0  0
  1  3  1  0  0  0  0
  1  4  1  0  0  0  0
  1  5  1  0  0  0  0
  5  6  1  0  0  0  0
  5  7  1  0  0  0  0
  5  8  1  0  0  0  0
  8  9  1  0  0  0  0
  8 10  1  0  0  0  0
  8 11  1  0  0  0  0
 11 12  1  0  0  0  0
 11 13  1  0  0  0  0
 11 14  1  0  0  0  0
 14 15  1  0  0  0  0
 14 16  1  0  0  0  0
 14 17  1  0  0  0  0
 17 18  1  0  0  0  0
 17 19  1  0  0  0  0
 17 20  1  0  0  0  0
M  END
> <VConfSearch Rank>
793

> <Conf_Id>
69

> <Delta U+W>
2.811

> <U+W>
-8.967

> <U>
49.216

> <W>
-58.183

> <W(PB)>
-60.064

> <W(SA)>
1.881

> <Valence>
2.929

> <Coulomb>
46.006

> <VdW>
0.281

> <VdW6>
-4.909

> <VdW12>
5.190

> <Bond>
0.156

> <Angle>
0.974

> <Pdih>
1.799

> <Idih>
0.000

> <Tether>
0.000

$$$$
VeraChem MOL file


 20 19  0  0  0  0  0  0  0  0999 V2000     
   20.2050   19.1013   24.7154 N   0  3  0  0  0  0  0  0  0  0  0  0
   20.9843   18.7888   24.1306 H   0  0  0  0  0  0  0  0  0  0  0  0
   20.4363   20.0419   25.0502 H   0  0  0  0  0  0  0  0  0  0  0  0
   20.1824   18.4905   25.5388 H   0  0  0  0  0  0  0  0  0  0  0  0
   18.8877   19.0798   23.9638 C   0  0  0  0  0  0  0  0  0  0  0  0
   18.1168   19.4138   24.6637 H   0  0  0  0  0  0  0  0  0  0  0  0
   18.6637   18.0475   23.6821 H   0  0  0  0  0  0  0  0  0  0  0  0
   18.8537   19.9834   22.7132 C   0  0  0  0  0  0  0  0  0  0  0  0
   17.8021   20.2139   22.4967 H   0  0  0  0  0  0  0  0  0  0  0  0
   19.3338   20.9465   22.9314 H   0  0  0  0  0  0  0  0  0  0  0  0
   19.4715   19.3474   21.4414 C   0  0  0  0  0  0  0  0  0  0  0  0
   19.2883   20.0259   20.5967 H   0  0  0  0  0  0  0  0  0  0  0  0
   18.9413   18.4146   21.2040 H   0  0  0  0  0  0  0  0  0  0  0  0
   20.9897   19.0676   21.5367 C   0  0  0  0  0  0  0  0  0  0  0  0
   21.5154   19.9702   21.8787 H   0  0  0  0  0  0  0  0  0  0  0  0
   21.1811   18.2782   22.2743 H   0  0  0  0  0  0  0  0  0  0  0  0
   21.5720   18.6223   20.1782 C   0  0  0  0  0  0  0  0  0  0  0  0
   21.4382   19.4009   19.4159 H   0  0  0  0  0  0  0  0  0  0  0  0
   22.6472   18.4186   20.2651 H   0  0  0  0  0  0  0  0  0  0  0  0
   21.0837   17.7064   19.8205 H   0  0  0  0  0  0  0  0  0  0  0  0
  1  2  1  0  0  0  0
  1  3  1  0  0  0  0
  1  4  1  0  0  0  0
  1  5  1  0  0  0  0
  5  6  1  0  0  0  0
  5  7  1  0  0  0  0
  5  8  1  0  0  0  0
  8  9  1  0  0  0  0
  8 10  1  0  0  0  0
  8 11  1  0  0  0  0
 11 12  1  0  0  0  0
 11 13  1  0  0  0  0
 11 14  1  0  0  0  0
 14 15  1  0  0  0  0
 14 16  1  0  0  0  0
 14 17  1  0  0  0  0
 17 18  1  0  0  0  0
 17 19  1  0  0  0  0
 17 20  1  0  0  0  0
M  END
> <VConfSearch Rank>
794

> <Conf_Id>
26

> <Delta U+W>
2.809

> <U+W>
-8.969

> <U>
49.216

> <W>
-58.185

> <W(PB)>
-60.088

> <W(SA)>
1.903

> <Valence>
2.929

> <Coulomb>
46.006

> <VdW>
0.281

> <VdW6>
-4.909

> <VdW12>
5.190

> <Bond>
0.156

> <Angle>
0.974

> <Pdih>
1.799

> <Idih>
0.000

> <Tether>
0.000

$$$$
VeraChem MOL file


 20 19  0  0  0  0  0  0  0  0999 V2000     
   22.3494   20.1112   22.6886 N   0  3  0  0  0  0  0  0  0  0  0  0
   21.8785   20.2322   23.5900 H   0  0  0  0  0  0  0  0  0  0  0  0
   23.1224   19.4550   22.8364 H   0  0  0  0  0  0  0  0  0  0  0  0
   22.7677   21.0149   22.4442 H   0  0  0  0  0  0  0  0  0  0  0  0
   21.3935   19.6242   21.6171 C   0  0  0  0  0  0  0  0  0  0  0  0
   21.9534   19.5480   20.6810 H   0  0  0  0  0  0  0  0  0  0  0  0
   20.6156   20.3809   21.4861 H   0  0  0  0  0  0  0  0  0  0  0  0
   20.7451   18.2622   21.9378 C   0  0  0  0  0  0  0  0  0  0  0  0
   20.1328   17.9515   21.0816 H   0  0  0  0  0  0  0  0  0  0  0  0
   21.5326   17.5031   22.0337 H   0  0  0  0  0  0  0  0  0  0  0  0
   19.8783   18.2639   23.2245 C   0  0  0  0  0  0  0  0  0  0  0  0
   20.5258   18.4145   24.0988 H   0  0  0  0  0  0  0  0  0  0  0  0
   19.4338   17.2673   23.3526 H   0  0  0  0  0  0  0  0  0  0  0  0
   18.7496   19.3263   23.2469 C   0  0  0  0  0  0  0  0  0  0  0  0
   18.2177   19.2527   24.2058 H   0  0  0  0  0  0  0  0  0  0  0  0
   19.1781   20.3373   23.2169 H   0  0  0  0  0  0  0  0  0  0  0  0
   17.7293   19.1610   22.0978 C   0  0  0  0  0  0  0  0  0  0  0  0
   17.2977   18.1517   22.0953 H   0  0  0  0  0  0  0  0  0  0  0  0
   16.9055   19.8778   22.2090 H   0  0  0  0  0  0  0  0  0  0  0  0
   18.1922   19.3396   21.1193 H   0  0  0  0  0  0  0  0  0  0  0  0
  1  2  1  0  0  0  0
  1  3  1  0  0  0  0
  1  4  1  0  0  0  0
  1  5  1  0  0  0  0
  5  6  1  0  0  0  0
  5  7  1  0  0  0  0
  5  8  1  0  0  0  0
  8  9  1  0  0  0  0
  8 10  1  0  0  0  0
  8 11  1  0  0  0  0
 11 12  1  0  0  0  0
 11 13  1  0  0  0  0
 11 14  1  0  0  0  0
 14 15  1  0  0  0  0
 14 16  1  0  0  0  0
 14 17  1  0  0  0  0
 17 18  1  0  0  0  0
 17 19  1  0  0  0  0
 17 20  1  0  0  0  0
M  END
> <VConfSearch Rank>
795

> <Conf_Id>
2

> <Delta U+W>
0.994

> <U+W>
-10.784

> <U>
47.562

> <W>
-58.346

> <W(PB)>
-60.221

> <W(SA)>
1.875

> <Valence>
2.149

> <Coulomb>
45.034

> <VdW>
0.378

> <VdW6>
-5.599

> <VdW12>
5.977

> <Bond>
0.185

> <Angle>
0.935

> <Pdih>
1.028

> <Idih>
0.000

> <Tether>
0.000

$$$$
VeraChem MOL file


 20 19  0  0  0  0  0  0  0  0999 V2000     
   19.5496   18.3077   20.2572 N   0  3  0  0  0  0  0  0  0  0  0  0
   19.5778   17.2971   20.0902 H   0  0  0  0  0  0  0  0  0  0  0  0
   18.6813   18.5067   20.7627 H   0  0  0  0  0  0  0  0  0  0  0  0
   19.4739   18.7598   19.3401 H   0  0  0  0  0  0  0  0  0  0  0  0
   20.7672   18.7867   21.0233 C   0  0  0  0  0  0  0  0  0  0  0  0
   20.6915   19.8712   21.1383 H   0  0  0  0  0  0  0  0  0  0  0  0
   21.6496   18.5712   20.4146 H   0  0  0  0  0  0  0  0  0  0  0  0
   20.9272   18.1271   22.4080 C   0  0  0  0  0  0  0  0  0  0  0  0
   21.0364   17.0422   22.2787 H   0  0  0  0  0  0  0  0  0  0  0  0
   21.8676   18.4709   22.8572 H   0  0  0  0  0  0  0  0  0  0  0  0
   19.7518   18.4094   23.3805 C   0  0  0  0  0  0  0  0  0  0  0  0
   19.9684   17.9304   24.3453 H   0  0  0  0  0  0  0  0  0  0  0  0
   18.8432   17.9206   23.0041 H   0  0  0  0  0  0  0  0  0  0  0  0
   19.4517   19.9114   23.6192 C   0  0  0  0  0  0  0  0  0  0  0  0
   19.1383   20.3904   22.6817 H   0  0  0  0  0  0  0  0  0  0  0  0
   18.5939   19.9936   24.3012 H   0  0  0  0  0  0  0  0  0  0  0  0
   20.6444   20.6862   24.2242 C   0  0  0  0  0  0  0  0  0  0  0  0
   21.4911   20.7300   23.5280 H   0  0  0  0  0  0  0  0  0  0  0  0
   20.3541   21.7191   24.4560 H   0  0  0  0  0  0  0  0  0  0  0  0
   20.9883   20.2174   25.1553 H   0  0  0  0  0  0  0  0  0  0  0  0
  1  2  1  0  0  0  0
  1  3  1  0  0  0  0
  1  4  1  0  0  0  0
  1  5  1  0  0  0  0
  5  6  1  0  0  0  0
  5  7  1  0  0  0  0
  5  8  1  0  0  0  0
  8  9  1  0  0  0  0
  8 10  1  0  0  0  0
  8 11  1  0  0  0  0
 11 12  1  0  0  0  0
 11 13  1  0  0  0  0
 11 14  1  0  0  0  0
 14 15  1  0  0  0  0
 14 16  1  0  0  0  0
 14 17  1  0  0  0  0
 17 18  1  0  0  0  0
 17 19  1  0  0  0  0
 17 20  1  0  0  0  0
M  END
> <VConfSearch Rank>
796

> <Conf_Id>
1

> <Delta U+W>
1.032

> <U+W>
-10.746

> <U>
47.562

> <W>
-58.308

> <W(PB)>
-60.184

> <W(SA)>
1.877

> <Valence>
2.149

> <Coulomb>
45.035

> <VdW>
0.378

> <VdW6>
-5.599

> <VdW12>
5.978

> <Bond>
0.185

> <Angle>
0.935

> <Pdih>
1.028

> <Idih>
0.000

> <Tether>
0.000

$$$$
VeraChem MOL file


 20 19  0  0  0  0  0  0  0  0999 V2000     
   21.5495   21.0115   22.1134 N   0  3  0  0  0  0  0  0  0  0  0  0
   22.5555   20.9599   22.3018 H   0  0  0  0  0  0  0  0  0  0  0  0
   21.3865   20.5545   21.2116 H   0  0  0  0  0  0  0  0  0  0  0  0
   21.3196   22.0034   21.9922 H   0  0  0  0  0  0  0  0  0  0  0  0
   20.7341   20.3760   23.2228 C   0  0  0  0  0  0  0  0  0  0  0  0
   19.6783   20.4935   22.9737 H   0  0  0  0  0  0  0  0  0  0  0  0
   20.9282   20.9415   24.1383 H   0  0  0  0  0  0  0  0  0  0  0  0
   21.0662   18.8885   23.4672 C   0  0  0  0  0  0  0  0  0  0  0  0
   22.1358   18.8130   23.7043 H   0  0  0  0  0  0  0  0  0  0  0  0
   20.5349   18.5396   24.3625 H   0  0  0  0  0  0  0  0  0  0  0  0
   20.7490   17.9474   22.2739 C   0  0  0  0  0  0  0  0  0  0  0  0
   21.3794   17.0530   22.3740 H   0  0  0  0  0  0  0  0  0  0  0  0
   21.0482   18.4107   21.3249 H   0  0  0  0  0  0  0  0  0  0  0  0
   19.2767   17.4686   22.1885 C   0  0  0  0  0  0  0  0  0  0  0  0
   19.1980   16.7421   21.3676 H   0  0  0  0  0  0  0  0  0  0  0  0
   19.0113   16.9209   23.1035 H   0  0  0  0  0  0  0  0  0  0  0  0
   18.2471   18.5945   21.9470 C   0  0  0  0  0  0  0  0  0  0  0  0
   18.5445   19.2335   21.1056 H   0  0  0  0  0  0  0  0  0  0  0  0
   17.2632   18.1682   21.7126 H   0  0  0  0  0  0  0  0  0  0  0  0
   18.1232   19.2205   22.8386 H   0  0  0  0  0  0  0  0  0  0  0  0
  1  2  1  0  0  0  0
  1  3  1  0  0  0  0
  1  4  1  0  0  0  0
  1  5  1  0  0  0  0
  5  6  1  0  0  0  0
  5  7  1  0  0  0  0
  5  8  1  0  0  0  0
  8  9  1  0  0  0  0
  8 10  1  0  0  0  0
  8 11  1  0  0  0  0
 11 12  1  0  0  0  0
 11 13  1  0  0  0  0
 11 14  1  0  0  0  0
 14 15  1  0  0  0  0
 14 16  1  0  0  0  0
 14 17  1  0  0  0  0
 17 18  1  0  0  0  0
 17 19  1  0  0  0  0
 17 20  1  0  0  0  0
M  END
> <VConfSearch Rank>
797

> <Conf_Id>
80

> <Delta U+W>
2.920

> <U+W>
-8.857

> <U>
49.434

> <W>
-58.292

> <W(PB)>
-60.170

> <W(SA)>
1.879

> <Valence>
3.798

> <Coulomb>
45.253

> <VdW>
0.384

> <VdW6>
-5.595

> <VdW12>
5.979

> <Bond>
0.198

> <Angle>
1.368

> <Pdih>
2.231

> <Idih>
0.000

> <Tether>
0.000

$$$$
VeraChem MOL file


 20 19  0  0  0  0  0  0  0  0999 V2000     
   20.6062   21.0432   21.1118 N   0  3  0  0  0  0  0  0  0  0  0  0
   20.7249   20.8917   20.1053 H   0  0  0  0  0  0  0  0  0  0  0  0
   20.4879   22.0524   21.2493 H   0  0  0  0  0  0  0  0  0  0  0  0
   21.4871   20.7812   21.5634 H   0  0  0  0  0  0  0  0  0  0  0  0
   19.4332   20.2582   21.6663 C   0  0  0  0  0  0  0  0  0  0  0  0
   18.5301   20.6219   21.1687 H   0  0  0  0  0  0  0  0  0  0  0  0
   19.3465   20.4891   22.7291 H   0  0  0  0  0  0  0  0  0  0  0  0
   19.5477   18.7334   21.4552 C   0  0  0  0  0  0  0  0  0  0  0  0
   18.6098   18.2523   21.7627 H   0  0  0  0  0  0  0  0  0  0  0  0
   19.6424   18.5451   20.3775 H   0  0  0  0  0  0  0  0  0  0  0  0
   20.7410   18.0637   22.1886 C   0  0  0  0  0  0  0  0  0  0  0  0
   21.6440   18.6819   22.1039 H   0  0  0  0  0  0  0  0  0  0  0  0
   20.9769   17.1282   21.6625 H   0  0  0  0  0  0  0  0  0  0  0  0
   20.4814   17.7061   23.6748 C   0  0  0  0  0  0  0  0  0  0  0  0
   19.6343   17.0096   23.7460 H   0  0  0  0  0  0  0  0  0  0  0  0
   21.3555   17.1589   24.0550 H   0  0  0  0  0  0  0  0  0  0  0  0
   20.2260   18.9212   24.5936 C   0  0  0  0  0  0  0  0  0  0  0  0
   19.2442   19.3691   24.4000 H   0  0  0  0  0  0  0  0  0  0  0  0
   20.2379   18.6124   25.6469 H   0  0  0  0  0  0  0  0  0  0  0  0
   20.9974   19.6907   24.4614 H   0  0  0  0  0  0  0  0  0  0  0  0
  1  2  1  0  0  0  0
  1  3  1  0  0  0  0
  1  4  1  0  0  0  0
  1  5  1  0  0  0  0
  5  6  1  0  0  0  0
  5  7  1  0  0  0  0
  5  8  1  0  0  0  0
  8  9  1  0  0  0  0
  8 10  1  0  0  0  0
  8 11  1  0  0  0  0
 11 12  1  0  0  0  0
 11 13  1  0  0  0  0
 11 14  1  0  0  0  0
 14 15  1  0  0  0  0
 14 16  1  0  0  0  0
 14 17  1  0  0  0  0
 17 18  1  0  0  0  0
 17 19  1  0  0  0  0
 17 20  1  0  0  0  0
M  END
> <VConfSearch Rank>
798

> <Conf_Id>
65

> <Delta U+W>
2.949

> <U+W>
-8.829

> <U>
49.435

> <W>
-58.263

> <W(PB)>
-60.125

> <W(SA)>
1.862

> <Valence>
3.797

> <Coulomb>
45.253

> <VdW>
0.384

> <VdW6>
-5.596

> <VdW12>
5.980

> <Bond>
0.198

> <Angle>
1.369

> <Pdih>
2.230

> <Idih>
0.000

> <Tether>
0.000

$$$$
VeraChem MOL file


 20 19  0  0  0  0  0  0  0  0999 V2000     
   18.1595   19.3483   22.7140 N   0  3  0  0  0  0  0  0  0  0  0  0
   17.3488   19.7340   22.2183 H   0  0  0  0  0  0  0  0  0  0  0  0
   18.5846   18.6437   22.1036 H   0  0  0  0  0  0  0  0  0  0  0  0
   17.7990   18.8591   23.5394 H   0  0  0  0  0  0  0  0  0  0  0  0
   19.1559   20.4276   23.0904 C   0  0  0  0  0  0  0  0  0  0  0  0
   18.6313   21.1345   23.7389 H   0  0  0  0  0  0  0  0  0  0  0  0
   19.4572   20.9586   22.1835 H   0  0  0  0  0  0  0  0  0  0  0  0
   20.4036   19.8992   23.8271 C   0  0  0  0  0  0  0  0  0  0  0  0
   20.8279   20.7317   24.4039 H   0  0  0  0  0  0  0  0  0  0  0  0
   20.1065   19.1445   24.5673 H   0  0  0  0  0  0  0  0  0  0  0  0
   21.5244   19.3385   22.9110 C   0  0  0  0  0  0  0  0  0  0  0  0
   22.3649   19.0524   23.5584 H   0  0  0  0  0  0  0  0  0  0  0  0
   21.9124   20.1365   22.2627 H   0  0  0  0  0  0  0  0  0  0  0  0
   21.1335   18.1041   22.0590 C   0  0  0  0  0  0  0  0  0  0  0  0
   22.0064   17.4403   21.9838 H   0  0  0  0  0  0  0  0  0  0  0  0
   20.3585   17.5155   22.5682 H   0  0  0  0  0  0  0  0  0  0  0  0
   20.6945   18.4720   20.6218 C   0  0  0  0  0  0  0  0  0  0  0  0
   19.8687   19.1913   20.6065 H   0  0  0  0  0  0  0  0  0  0  0  0
   21.5293   18.9183   20.0657 H   0  0  0  0  0  0  0  0  0  0  0  0
   20.3744   17.5762   20.0737 H   0  0  0  0  0  0  0  0  0  0  0  0
  1  2  1  0  0  0  0
  1  3  1  0  0  0  0
  1  4  1  0  0  0  0
  1  5  1  0  0  0  0
  5  6  1  0  0  0  0
  5  7  1  0  0  0  0
  5  8  1  0  0  0  0
  8  9  1  0  0  0  0
  8 10  1  0  0  0  0
  8 11  1  0  0  0  0
 11 12  1  0  0  0  0
 11 13  1  0  0  0  0
 11 14  1  0  0  0  0
 14 15  1  0  0  0  0
 14 16  1  0  0  0  0
 14 17  1  0  0  0  0
 17 18  1  0  0  0  0
 17 19  1  0  0  0  0
 17 20  1  0  0  0  0
M  END
> <VConfSearch Rank>
799

> <Conf_Id>
77

> <Delta U+W>
5.366

> <U+W>
-6.412

> <U>
51.542

> <W>
-57.954

> <W(PB)>
-59.811

> <W(SA)>
1.857

> <Valence>
5.347

> <Coulomb>
45.870

> <VdW>
0.325

> <VdW6>
-6.161

> <VdW12>
6.486

> <Bond>
0.201

> <Angle>
1.484

> <Pdih>
3.662

> <Idih>
0.000

> <Tether>
0.000

$$$$
VeraChem MOL file


 20 19  0  0  0  0  0  0  0  0999 V2000     
   19.6961   20.9371   22.3894 N   0  3  0  0  0  0  0  0  0  0  0  0
   20.2595   21.5595   22.9773 H   0  0  0  0  0  0  0  0  0  0  0  0
   20.3254   20.5193   21.6972 H   0  0  0  0  0  0  0  0  0  0  0  0
   19.0308   21.5288   21.8806 H   0  0  0  0  0  0  0  0  0  0  0  0
   18.9919   19.8736   23.2095 C   0  0  0  0  0  0  0  0  0  0  0  0
   18.3568   19.2816   22.5451 H   0  0  0  0  0  0  0  0  0  0  0  0
   18.3456   20.3948   23.9210 H   0  0  0  0  0  0  0  0  0  0  0  0
   19.9482   18.9449   23.9850 C   0  0  0  0  0  0  0  0  0  0  0  0
   20.7587   19.5355   24.4323 H   0  0  0  0  0  0  0  0  0  0  0  0
   19.3887   18.5193   24.8286 H   0  0  0  0  0  0  0  0  0  0  0  0
   20.5354   17.7656   23.1637 C   0  0  0  0  0  0  0  0  0  0  0  0
   19.7259   17.1012   22.8311 H   0  0  0  0  0  0  0  0  0  0  0  0
   21.1475   17.1619   23.8481 H   0  0  0  0  0  0  0  0  0  0  0  0
   21.4213   18.1695   21.9577 C   0  0  0  0  0  0  0  0  0  0  0  0
   21.9113   19.1342   22.1466 H   0  0  0  0  0  0  0  0  0  0  0  0
   22.2364   17.4383   21.8619 H   0  0  0  0  0  0  0  0  0  0  0  0
   20.6488   18.1940   20.6174 C   0  0  0  0  0  0  0  0  0  0  0  0
   21.2988   18.5379   19.8023 H   0  0  0  0  0  0  0  0  0  0  0  0
   20.2968   17.1874   20.3564 H   0  0  0  0  0  0  0  0  0  0  0  0
   19.7719   18.8495   20.6505 H   0  0  0  0  0  0  0  0  0  0  0  0
  1  2  1  0  0  0  0
  1  3  1  0  0  0  0
  1  4  1  0  0  0  0
  1  5  1  0  0  0  0
  5  6  1  0  0  0  0
  5  7  1  0  0  0  0
  5  8  1  0  0  0  0
  8  9  1  0  0  0  0
  8 10  1  0  0  0  0
  8 11  1  0  0  0  0
 11 12  1  0  0  0  0
 11 13  1  0  0  0  0
 11 14  1  0  0  0  0
 14 15  1  0  0  0  0
 14 16  1  0  0  0  0
 14 17  1  0  0  0  0
 17 18  1  0  0  0  0
 17 19  1  0  0  0  0
 17 20  1  0  0  0  0
M  END
> <VConfSearch Rank>
800

> <Conf_Id>
67

> <Delta U+W>
5.353

> <U+W>
-6.425

> <U>
51.541

> <W>
-57.966

> <W(PB)>
-59.821

> <W(SA)>
1.855

> <Valence>
5.347

> <Coulomb>
45.870

> <VdW>
0.325

> <VdW6>
-6.161

> <VdW12>
6.486

> <Bond>
0.201

> <Angle>
1.485

> <Pdih>
3.662

> <Idih>
0.000

> <Tether>
0.000

$$$$
VeraChem MOL file


 20 19  0  0  0  0  0  0  0  0999 V2000     
   19.2691   16.8212   24.5242 N   0  3  0  0  0  0  0  0  0  0  0  0
   20.1848   16.3756   24.6396 H   0  0  0  0  0  0  0  0  0  0  0  0
   18.7935   16.7622   25.4308 H   0  0  0  0  0  0  0  0  0  0  0  0
   18.7331   16.2429   23.8695 H   0  0  0  0  0  0  0  0  0  0  0  0
   19.3922   18.2536   24.0451 C   0  0  0  0  0  0  0  0  0  0  0  0
   19.9457   18.8162   24.8018 H   0  0  0  0  0  0  0  0  0  0  0  0
   18.3851   18.6734   23.9738 H   0  0  0  0  0  0  0  0  0  0  0  0
   20.1024   18.3777   22.6852 C   0  0  0  0  0  0  0  0  0  0  0  0
   21.1073   17.9406   22.7571 H   0  0  0  0  0  0  0  0  0  0  0  0
   19.5521   17.7983   21.9318 H   0  0  0  0  0  0  0  0  0  0  0  0
   20.2071   19.8515   22.2337 C   0  0  0  0  0  0  0  0  0  0  0  0
   20.7537   20.4293   22.9922 H   0  0  0  0  0  0  0  0  0  0  0  0
   19.2003   20.2871   22.1679 H   0  0  0  0  0  0  0  0  0  0  0  0
   20.9188   19.9883   20.8691 C   0  0  0  0  0  0  0  0  0  0  0  0
   21.9272   19.5555   20.9311 H   0  0  0  0  0  0  0  0  0  0  0  0
   20.3741   19.4135   20.1069 H   0  0  0  0  0  0  0  0  0  0  0  0
   21.0212   21.4623   20.4221 C   0  0  0  0  0  0  0  0  0  0  0  0
   21.5911   22.0566   21.1482 H   0  0  0  0  0  0  0  0  0  0  0  0
   21.5291   21.5390   19.4520 H   0  0  0  0  0  0  0  0  0  0  0  0
   20.0258   21.9134   20.3175 H   0  0  0  0  0  0  0  0  0  0  0  0
  1  2  1  0  0  0  0
  1  3  1  0  0  0  0
  1  4  1  0  0  0  0
  1  5  1  0  0  0  0
  5  6  1  0  0  0  0
  5  7  1  0  0  0  0
  5  8  1  0  0  0  0
  8  9  1  0  0  0  0
  8 10  1  0  0  0  0
  8 11  1  0  0  0  0
 11 12  1  0  0  0  0
 11 13  1  0  0  0  0
 11 14  1  0  0  0  0
 14 15  1  0  0  0  0
 14 16  1  0  0  0  0
 14 17  1  0  0  0  0
 17 18  1  0  0  0  0
 17 19  1  0  0  0  0
 17 20  1  0  0  0  0
M  END
> <VConfSearch Rank>
801

> <Conf_Id>
72

> <Delta U+W>
0.000

> <U+W>
-11.778

> <U>
45.772

> <W>
-57.550

> <W(PB)>
-59.511

> <W(SA)>
1.961

> <Valence>
1.299

> <Coulomb>
44.177

> <VdW>
0.297

> <VdW6>
-3.490

> <VdW12>
3.786

> <Bond>
0.096

> <Angle>
0.381

> <Pdih>
0.822

> <Idih>
0.000

> <Tether>
0.000

$$$$
VeraChem MOL file


 20 19  0  0  0  0  0  0  0  0999 V2000     
   19.2296   18.6964   25.3165 N   0  3  0  0  0  0  0  0  0  0  0  0
   20.0117   18.0527   25.4726 H   0  0  0  0  0  0  0  0  0  0  0  0
   19.5064   19.6055   25.7003 H   0  0  0  0  0  0  0  0  0  0  0  0
   18.4479   18.3583   25.8876 H   0  0  0  0  0  0  0  0  0  0  0  0
   18.8567   18.7901   23.8507 C   0  0  0  0  0  0  0  0  0  0  0  0
   18.0014   19.4655   23.7627 H   0  0  0  0  0  0  0  0  0  0  0  0
   18.5451   17.7965   23.5174 H   0  0  0  0  0  0  0  0  0  0  0  0
   20.0090   19.2956   22.9641 C   0  0  0  0  0  0  0  0  0  0  0  0
   20.3294   20.2866   23.3122 H   0  0  0  0  0  0  0  0  0  0  0  0
   20.8673   18.6208   23.0739 H   0  0  0  0  0  0  0  0  0  0  0  0
   19.5837   19.3777   21.4790 C   0  0  0  0  0  0  0  0  0  0  0  0
   18.6783   19.9955   21.3998 H   0  0  0  0  0  0  0  0  0  0  0  0
   19.3071   18.3775   21.1174 H   0  0  0  0  0  0  0  0  0  0  0  0
   20.6722   19.9788   20.5568 C   0  0  0  0  0  0  0  0  0  0  0  0
   20.2532   20.0976   19.5478 H   0  0  0  0  0  0  0  0  0  0  0  0
   20.9348   20.9890   20.9009 H   0  0  0  0  0  0  0  0  0  0  0  0
   21.9491   19.1121   20.4669 C   0  0  0  0  0  0  0  0  0  0  0  0
   21.7103   18.0881   20.1517 H   0  0  0  0  0  0  0  0  0  0  0  0
   22.6486   19.5338   19.7335 H   0  0  0  0  0  0  0  0  0  0  0  0
   22.4721   19.0628   21.4299 H   0  0  0  0  0  0  0  0  0  0  0  0
  1  2  1  0  0  0  0
  1  3  1  0  0  0  0
  1  4  1  0  0  0  0
  1  5  1  0  0  0  0
  5  6  1  0  0  0  0
  5  7  1  0  0  0  0
  5  8  1  0  0  0  0
  8  9  1  0  0  0  0
  8 10  1  0  0  0  0
  8 11  1  0  0  0  0
 11 12  1  0  0  0  0
 11 13  1  0  0  0  0
 11 14  1  0  0  0  0
 14 15  1  0  0  0  0
 14 16  1  0  0  0  0
 14 17  1  0  0  0  0
 17 18  1  0  0  0  0
 17 19  1  0  0  0  0
 17 20  1  0  0  0  0
M  END
> <VConfSearch Rank>
802

> <Conf_Id>
42

> <Delta U+W>
0.508

> <U+W>
-11.270

> <U>
46.486

> <W>
-57.756

> <W(PB)>
-59.705

> <W(SA)>
1.949

> <Valence>
1.806

> <Coulomb>
44.248

> <VdW>
0.433

> <VdW6>
-4.089

> <VdW12>
4.522

> <Bond>
0.131

> <Angle>
0.628

> <Pdih>
1.047

> <Idih>
0.000

> <Tether>
0.000

$$$$
VeraChem MOL file


 20 19  0  0  0  0  0  0  0  0999 V2000     
   17.7789   17.7841   21.1601 N   0  3  0  0  0  0  0  0  0  0  0  0
   17.4863   18.5915   20.6007 H   0  0  0  0  0  0  0  0  0  0  0  0
   18.3858   17.2102   20.5663 H   0  0  0  0  0  0  0  0  0  0  0  0
   16.9360   17.2306   21.3465 H   0  0  0  0  0  0  0  0  0  0  0  0
   18.4717   18.2035   22.4410 C   0  0  0  0  0  0  0  0  0  0  0  0
   18.7276   17.2984   22.9983 H   0  0  0  0  0  0  0  0  0  0  0  0
   17.7600   18.7829   23.0354 H   0  0  0  0  0  0  0  0  0  0  0  0
   19.7421   19.0376   22.1968 C   0  0  0  0  0  0  0  0  0  0  0  0
   20.4412   18.4536   21.5850 H   0  0  0  0  0  0  0  0  0  0  0  0
   19.4831   19.9374   21.6232 H   0  0  0  0  0  0  0  0  0  0  0  0
   20.4141   19.4449   23.5294 C   0  0  0  0  0  0  0  0  0  0  0  0
   20.7150   18.5443   24.0826 H   0  0  0  0  0  0  0  0  0  0  0  0
   19.6761   19.9613   24.1590 H   0  0  0  0  0  0  0  0  0  0  0  0
   21.6395   20.3728   23.3452 C   0  0  0  0  0  0  0  0  0  0  0  0
   21.3379   21.2859   22.8131 H   0  0  0  0  0  0  0  0  0  0  0  0
   21.9890   20.6962   24.3357 H   0  0  0  0  0  0  0  0  0  0  0  0
   22.8137   19.6998   22.5982 C   0  0  0  0  0  0  0  0  0  0  0  0
   22.5502   19.4661   21.5592 H   0  0  0  0  0  0  0  0  0  0  0  0
   23.6861   20.3656   22.5748 H   0  0  0  0  0  0  0  0  0  0  0  0
   23.1160   18.7686   23.0946 H   0  0  0  0  0  0  0  0  0  0  0  0
  1  2  1  0  0  0  0
  1  3  1  0  0  0  0
  1  4  1  0  0  0  0
  1  5  1  0  0  0  0
  5  6  1  0  0  0  0
  5  7  1  0  0  0  0
  5  8  1  0  0  0  0
  8  9  1  0  0  0  0
  8 10  1  0  0  0  0
  8 11  1  0  0  0  0
 11 12  1  0  0  0  0
 11 13  1  0  0  0  0
 11 14  1  0  0  0  0
 14 15  1  0  0  0  0
 14 16  1  0  0  0  0
 14 17  1  0  0  0  0
 17 18  1  0  0  0  0
 17 19  1  0  0  0  0
 17 20  1  0  0  0  0
M  END
> <VConfSearch Rank>
803

> <Conf_Id>
41

> <Delta U+W>
0.515

> <U+W>
-11.263

> <U>
46.486

> <W>
-57.749

> <W(PB)>
-59.685

> <W(SA)>
1.936

> <Valence>
1.806

> <Coulomb>
44.248

> <VdW>
0.433

> <VdW6>
-4.089

> <VdW12>
4.522

> <Bond>
0.131

> <Angle>
0.628

> <Pdih>
1.047

> <Idih>
0.000

> <Tether>
0.000

$$$$
VeraChem MOL file


 20 19  0  0  0  0  0  0  0  0999 V2000     
   19.5551   17.4688   20.3297 N   0  3  0  0  0  0  0  0  0  0  0  0
   19.1448   17.2990   19.4054 H   0  0  0  0  0  0  0  0  0  0  0  0
   20.5468   17.6779   20.1817 H   0  0  0  0  0  0  0  0  0  0  0  0
   19.5057   16.5841   20.8444 H   0  0  0  0  0  0  0  0  0  0  0  0
   18.8444   18.5898   21.0635 C   0  0  0  0  0  0  0  0  0  0  0  0
   17.7891   18.3150   21.1440 H   0  0  0  0  0  0  0  0  0  0  0  0
   18.9143   19.4940   20.4528 H   0  0  0  0  0  0  0  0  0  0  0  0
   19.4064   18.8699   22.4712 C   0  0  0  0  0  0  0  0  0  0  0  0
   18.7540   19.6071   22.9554 H   0  0  0  0  0  0  0  0  0  0  0  0
   19.3509   17.9555   23.0765 H   0  0  0  0  0  0  0  0  0  0  0  0
   20.8623   19.3996   22.4399 C   0  0  0  0  0  0  0  0  0  0  0  0
   20.9059   20.3267   21.8517 H   0  0  0  0  0  0  0  0  0  0  0  0
   21.5039   18.6746   21.9219 H   0  0  0  0  0  0  0  0  0  0  0  0
   21.4568   19.6519   23.8470 C   0  0  0  0  0  0  0  0  0  0  0  0
   21.4280   18.7238   24.4349 H   0  0  0  0  0  0  0  0  0  0  0  0
   22.5188   19.9133   23.7386 H   0  0  0  0  0  0  0  0  0  0  0  0
   20.7441   20.7823   24.6241 C   0  0  0  0  0  0  0  0  0  0  0  0
   19.7086   20.5146   24.8680 H   0  0  0  0  0  0  0  0  0  0  0  0
   21.2630   20.9839   25.5702 H   0  0  0  0  0  0  0  0  0  0  0  0
   20.7316   21.7140   24.0438 H   0  0  0  0  0  0  0  0  0  0  0  0
  1  2  1  0  0  0  0
  1  3  1  0  0  0  0
  1  4  1  0  0  0  0
  1  5  1  0  0  0  0
  5  6  1  0  0  0  0
  5  7  1  0  0  0  0
  5  8  1  0  0  0  0
  8  9  1  0  0  0  0
  8 10  1  0  0  0  0
  8 11  1  0  0  0  0
 11 12  1  0  0  0  0
 11 13  1  0  0  0  0
 11 14  1  0  0  0  0
 14 15  1  0  0  0  0
 14 16  1  0  0  0  0
 14 17  1  0  0  0  0
 17 18  1  0  0  0  0
 17 19  1  0  0  0  0
 17 20  1  0  0  0  0
M  END
> <VConfSearch Rank>
804

> <Conf_Id>
33

> <Delta U+W>
0.703

> <U+W>
-11.075

> <U>
47.080

> <W>
-58.154

> <W(PB)>
-60.053

> <W(SA)>
1.899

> <Valence>
1.943

> <Coulomb>
44.572

> <VdW>
0.565

> <VdW6>
-4.575

> <VdW12>
5.139

> <Bond>
0.158

> <Angle>
0.700

> <Pdih>
1.085

> <Idih>
0.000

> <Tether>
0.000

$$$$
VeraChem MOL file


 20 19  0  0  0  0  0  0  0  0999 V2000     
   22.7095   19.9265   21.7943 N   0  3  0  0  0  0  0  0  0  0  0  0
   23.6054   19.7795   21.3176 H   0  0  0  0  0  0  0  0  0  0  0  0
   22.5612   20.9393   21.8435 H   0  0  0  0  0  0  0  0  0  0  0  0
   22.8243   19.5904   22.7549 H   0  0  0  0  0  0  0  0  0  0  0  0
   21.5708   19.2228   21.0815 C   0  0  0  0  0  0  0  0  0  0  0  0
   21.8019   18.1548   21.0432 H   0  0  0  0  0  0  0  0  0  0  0  0
   21.5394   19.6005   20.0558 H   0  0  0  0  0  0  0  0  0  0  0  0
   20.1947   19.4323   21.7435 C   0  0  0  0  0  0  0  0  0  0  0  0
   19.9732   20.5065   21.7963 H   0  0  0  0  0  0  0  0  0  0  0  0
   19.4338   18.9865   21.0909 H   0  0  0  0  0  0  0  0  0  0  0  0
   20.1079   18.8013   23.1562 C   0  0  0  0  0  0  0  0  0  0  0  0
   20.8947   19.2245   23.7945 H   0  0  0  0  0  0  0  0  0  0  0  0
   20.3083   17.7228   23.0923 H   0  0  0  0  0  0  0  0  0  0  0  0
   18.7445   19.0332   23.8522 C   0  0  0  0  0  0  0  0  0  0  0  0
   18.8071   18.6571   24.8830 H   0  0  0  0  0  0  0  0  0  0  0  0
   18.5456   20.1112   23.9307 H   0  0  0  0  0  0  0  0  0  0  0  0
   17.5622   18.3365   23.1404 C   0  0  0  0  0  0  0  0  0  0  0  0
   17.7506   17.2617   23.0211 H   0  0  0  0  0  0  0  0  0  0  0  0
   16.6403   18.4522   23.7249 H   0  0  0  0  0  0  0  0  0  0  0  0
   17.3780   18.7661   22.1480 H   0  0  0  0  0  0  0  0  0  0  0  0
  1  2  1  0  0  0  0
  1  3  1  0  0  0  0
  1  4  1  0  0  0  0
  1  5  1  0  0  0  0
  5  6  1  0  0  0  0
  5  7  1  0  0  0  0
  5  8  1  0  0  0  0
  8  9  1  0  0  0  0
  8 10  1  0  0  0  0
  8 11  1  0  0  0  0
 11 12  1  0  0  0  0
 11 13  1  0  0  0  0
 11 14  1  0  0  0  0
 14 15  1  0  0  0  0
 14 16  1  0  0  0  0
 14 17  1  0  0  0  0
 17 18  1  0  0  0  0
 17 19  1  0  0  0  0
 17 20  1  0  0  0  0
M  END
> <VConfSearch Rank>
805

> <Conf_Id>
24

> <Delta U+W>
0.847

> <U+W>
-10.931

> <U>
47.080

> <W>
-58.011

> <W(PB)>
-59.914

> <W(SA)>
1.903

> <Valence>
1.943

> <Coulomb>
44.572

> <VdW>
0.565

> <VdW6>
-4.575

> <VdW12>
5.140

> <Bond>
0.158

> <Angle>
0.700

> <Pdih>
1.085

> <Idih>
0.000

> <Tether>
0.000

$$$$
VeraChem MOL file


 20 19  0  0  0  0  0  0  0  0999 V2000     
   18.6134   20.5523   24.3406 N   0  3  0  0  0  0  0  0  0  0  0  0
   18.7484   21.5132   24.6722 H   0  0  0  0  0  0  0  0  0  0  0  0
   17.8080   20.5669   23.7070 H   0  0  0  0  0  0  0  0  0  0  0  0
   18.3454   19.9918   25.1556 H   0  0  0  0  0  0  0  0  0  0  0  0
   19.8564   20.0100   23.6644 C   0  0  0  0  0  0  0  0  0  0  0  0
   20.6780   20.0506   24.3846 H   0  0  0  0  0  0  0  0  0  0  0  0
   20.0991   20.6708   22.8281 H   0  0  0  0  0  0  0  0  0  0  0  0
   19.6866   18.5669   23.1533 C   0  0  0  0  0  0  0  0  0  0  0  0
   19.4024   17.9196   23.9935 H   0  0  0  0  0  0  0  0  0  0  0  0
   18.8561   18.5233   22.4371 H   0  0  0  0  0  0  0  0  0  0  0  0
   20.9762   18.0053   22.5041 C   0  0  0  0  0  0  0  0  0  0  0  0
   20.7890   16.9740   22.1744 H   0  0  0  0  0  0  0  0  0  0  0  0
   21.7614   17.9395   23.2700 H   0  0  0  0  0  0  0  0  0  0  0  0
   21.5149   18.8302   21.3072 C   0  0  0  0  0  0  0  0  0  0  0  0
   21.8080   19.8352   21.6401 H   0  0  0  0  0  0  0  0  0  0  0  0
   22.4351   18.3545   20.9400 H   0  0  0  0  0  0  0  0  0  0  0  0
   20.5115   18.9423   20.1369 C   0  0  0  0  0  0  0  0  0  0  0  0
   20.9733   19.4532   19.2822 H   0  0  0  0  0  0  0  0  0  0  0  0
   20.1865   17.9498   19.7989 H   0  0  0  0  0  0  0  0  0  0  0  0
   19.6218   19.5169   20.4229 H   0  0  0  0  0  0  0  0  0  0  0  0
  1  2  1  0  0  0  0
  1  3  1  0  0  0  0
  1  4  1  0  0  0  0
  1  5  1  0  0  0  0
  5  6  1  0  0  0  0
  5  7  1  0  0  0  0
  5  8  1  0  0  0  0
  8  9  1  0  0  0  0
  8 10  1  0  0  0  0
  8 11  1  0  0  0  0
 11 12  1  0  0  0  0
 11 13  1  0  0  0  0
 11 14  1  0  0  0  0
 14 15  1  0  0  0  0
 14 16  1  0  0  0  0
 14 17  1  0  0  0  0
 17 18  1  0  0  0  0
 17 19  1  0  0  0  0
 17 20  1  0  0  0  0
M  END
> <VConfSearch Rank>
806

> <Conf_Id>
64

> <Delta U+W>
0.707

> <U+W>
-11.070

> <U>
47.077

> <W>
-58.148

> <W(PB)>
-60.054

> <W(SA)>
1.906

> <Valence>
2.039

> <Coulomb>
44.655

> <VdW>
0.383

> <VdW6>
-4.912

> <VdW12>
5.295

> <Bond>
0.159

> <Angle>
0.856

> <Pdih>
1.024

> <Idih>
0.000

> <Tether>
0.000

$$$$
VeraChem MOL file


 20 19  0  0  0  0  0  0  0  0999 V2000     
   22.7134   20.0411   21.9712 N   0  3  0  0  0  0  0  0  0  0  0  0
   23.0510   20.7252   22.6556 H   0  0  0  0  0  0  0  0  0  0  0  0
   23.1417   19.1409   22.2088 H   0  0  0  0  0  0  0  0  0  0  0  0
   23.0930   20.3200   21.0604 H   0  0  0  0  0  0  0  0  0  0  0  0
   21.2004   19.9607   21.9501 C   0  0  0  0  0  0  0  0  0  0  0  0
   20.9131   19.2389   21.1810 H   0  0  0  0  0  0  0  0  0  0  0  0
   20.8137   20.9421   21.6625 H   0  0  0  0  0  0  0  0  0  0  0  0
   20.5975   19.5433   23.3047 C   0  0  0  0  0  0  0  0  0  0  0  0
   20.9921   18.5623   23.5987 H   0  0  0  0  0  0  0  0  0  0  0  0
   20.9260   20.2511   24.0772 H   0  0  0  0  0  0  0  0  0  0  0  0
   19.0488   19.5076   23.2861 C   0  0  0  0  0  0  0  0  0  0  0  0
   18.6708   20.5249   23.1141 H   0  0  0  0  0  0  0  0  0  0  0  0
   18.6873   19.2155   24.2817 H   0  0  0  0  0  0  0  0  0  0  0  0
   18.4322   18.5604   22.2250 C   0  0  0  0  0  0  0  0  0  0  0  0
   17.3371   18.6287   22.2888 H   0  0  0  0  0  0  0  0  0  0  0  0
   18.6964   18.8996   21.2141 H   0  0  0  0  0  0  0  0  0  0  0  0
   18.8499   17.0830   22.4033 C   0  0  0  0  0  0  0  0  0  0  0  0
   18.6150   16.7254   23.4142 H   0  0  0  0  0  0  0  0  0  0  0  0
   18.3157   16.4435   21.6887 H   0  0  0  0  0  0  0  0  0  0  0  0
   19.9243   16.9445   22.2301 H   0  0  0  0  0  0  0  0  0  0  0  0
  1  2  1  0  0  0  0
  1  3  1  0  0  0  0
  1  4  1  0  0  0  0
  1  5  1  0  0  0  0
  5  6  1  0  0  0  0
  5  7  1  0  0  0  0
  5  8  1  0  0  0  0
  8  9  1  0  0  0  0
  8 10  1  0  0  0  0
  8 11  1  0  0  0  0
 11 12  1  0  0  0  0
 11 13  1  0  0  0  0
 11 14  1  0  0  0  0
 14 15  1  0  0  0  0
 14 16  1  0  0  0  0
 14 17  1  0  0  0  0
 17 18  1  0  0  0  0
 17 19  1  0  0  0  0
 17 20  1  0  0  0  0
M  END
> <VConfSearch Rank>
807

> <Conf_Id>
22

> <Delta U+W>
0.731

> <U+W>
-11.047

> <U>
47.078

> <W>
-58.125

> <W(PB)>
-60.031

> <W(SA)>
1.906

> <Valence>
2.039

> <Coulomb>
44.655

> <VdW>
0.383

> <VdW6>
-4.913

> <VdW12>
5.296

> <Bond>
0.159

> <Angle>
0.856

> <Pdih>
1.024

> <Idih>
0.000

> <Tether>
0.000

$$$$
VeraChem MOL file


 20 19  0  0  0  0  0  0  0  0999 V2000     
   17.5952   19.8285   23.2286 N   0  3  0  0  0  0  0  0  0  0  0  0
   17.0573   19.4777   22.4299 H   0  0  0  0  0  0  0  0  0  0  0  0
   17.2784   19.3121   24.0551 H   0  0  0  0  0  0  0  0  0  0  0  0
   17.3198   20.8067   23.3659 H   0  0  0  0  0  0  0  0  0  0  0  0
   19.0884   19.6887   23.0112 C   0  0  0  0  0  0  0  0  0  0  0  0
   19.5979   20.1051   23.8843 H   0  0  0  0  0  0  0  0  0  0  0  0
   19.3534   20.2864   22.1360 H   0  0  0  0  0  0  0  0  0  0  0  0
   19.5338   18.2313   22.7961 C   0  0  0  0  0  0  0  0  0  0  0  0
   19.1558   17.6205   23.6267 H   0  0  0  0  0  0  0  0  0  0  0  0
   19.0665   17.8372   21.8839 H   0  0  0  0  0  0  0  0  0  0  0  0
   21.0707   18.0497   22.7134 C   0  0  0  0  0  0  0  0  0  0  0  0
   21.2724   16.9712   22.6527 H   0  0  0  0  0  0  0  0  0  0  0  0
   21.5428   18.3876   23.6463 H   0  0  0  0  0  0  0  0  0  0  0  0
   21.7444   18.7322   21.4947 C   0  0  0  0  0  0  0  0  0  0  0  0
   22.6500   18.1644   21.2387 H   0  0  0  0  0  0  0  0  0  0  0  0
   21.0908   18.6704   20.6134 H   0  0  0  0  0  0  0  0  0  0  0  0
   22.1634   20.1993   21.7500 C   0  0  0  0  0  0  0  0  0  0  0  0
   21.3026   20.8533   21.9237 H   0  0  0  0  0  0  0  0  0  0  0  0
   22.8285   20.2731   22.6201 H   0  0  0  0  0  0  0  0  0  0  0  0
   22.7065   20.5973   20.8831 H   0  0  0  0  0  0  0  0  0  0  0  0
  1  2  1  0  0  0  0
  1  3  1  0  0  0  0
  1  4  1  0  0  0  0
  1  5  1  0  0  0  0
  5  6  1  0  0  0  0
  5  7  1  0  0  0  0
  5  8  1  0  0  0  0
  8  9  1  0  0  0  0
  8 10  1  0  0  0  0
  8 11  1  0  0  0  0
 11 12  1  0  0  0  0
 11 13  1  0  0  0  0
 11 14  1  0  0  0  0
 14 15  1  0  0  0  0
 14 16  1  0  0  0  0
 14 17  1  0  0  0  0
 17 18  1  0  0  0  0
 17 19  1  0  0  0  0
 17 20  1  0  0  0  0
M  END
> <VConfSearch Rank>
808

> <Conf_Id>
61

> <Delta U+W>
2.669

> <U+W>
-9.108

> <U>
48.916

> <W>
-58.025

> <W(PB)>
-59.935

> <W(SA)>
1.911

> <Valence>
3.785

> <Coulomb>
44.716

> <VdW>
0.415

> <VdW6>
-4.836

> <VdW12>
5.251

> <Bond>
0.175

> <Angle>
1.195

> <Pdih>
2.415

> <Idih>
0.000

> <Tether>
0.000

$$$$
VeraChem MOL file


 20 19  0  0  0  0  0  0  0  0999 V2000     
   18.7460   17.4184   21.6000 N   0  3  0  0  0  0  0  0  0  0  0  0
   17.8050   17.2206   21.2435 H   0  0  0  0  0  0  0  0  0  0  0  0
   19.2314   16.5186   21.6707 H   0  0  0  0  0  0  0  0  0  0  0  0
   18.6373   17.7786   22.5515 H   0  0  0  0  0  0  0  0  0  0  0  0
   19.4919   18.3913   20.7069 C   0  0  0  0  0  0  0  0  0  0  0  0
   18.9026   19.3082   20.6213 H   0  0  0  0  0  0  0  0  0  0  0  0
   19.5495   17.9331   19.7158 H   0  0  0  0  0  0  0  0  0  0  0  0
   20.9194   18.7288   21.1861 C   0  0  0  0  0  0  0  0  0  0  0  0
   21.4259   17.8178   21.5315 H   0  0  0  0  0  0  0  0  0  0  0  0
   21.4898   19.0780   20.3152 H   0  0  0  0  0  0  0  0  0  0  0  0
   20.9907   19.8320   22.2732 C   0  0  0  0  0  0  0  0  0  0  0  0
   20.5316   20.7539   21.8899 H   0  0  0  0  0  0  0  0  0  0  0  0
   22.0489   20.0691   22.4505 H   0  0  0  0  0  0  0  0  0  0  0  0
   20.3326   19.4494   23.6195 C   0  0  0  0  0  0  0  0  0  0  0  0
   19.2466   19.3552   23.4940 H   0  0  0  0  0  0  0  0  0  0  0  0
   20.7096   18.4733   23.9559 H   0  0  0  0  0  0  0  0  0  0  0  0
   20.6112   20.5067   24.7092 C   0  0  0  0  0  0  0  0  0  0  0  0
   20.1297   20.2253   25.6548 H   0  0  0  0  0  0  0  0  0  0  0  0
   21.6882   20.6066   24.8975 H   0  0  0  0  0  0  0  0  0  0  0  0
   20.2233   21.4902   24.4135 H   0  0  0  0  0  0  0  0  0  0  0  0
  1  2  1  0  0  0  0
  1  3  1  0  0  0  0
  1  4  1  0  0  0  0
  1  5  1  0  0  0  0
  5  6  1  0  0  0  0
  5  7  1  0  0  0  0
  5  8  1  0  0  0  0
  8  9  1  0  0  0  0
  8 10  1  0  0  0  0
  8 11  1  0  0  0  0
 11 12  1  0  0  0  0
 11 13  1  0  0  0  0
 11 14  1  0  0  0  0
 14 15  1  0  0  0  0
 14 16  1  0  0  0  0
 14 17  1  0  0  0  0
 17 18  1  0  0  0  0
 17 19  1  0  0  0  0
 17 20  1  0  0  0  0
M  END
> <VConfSearch Rank>
809

> <Conf_Id>
69

> <Delta U+W>
2.811

> <U+W>
-8.967

> <U>
49.216

> <W>
-58.183

> <W(PB)>
-60.064

> <W(SA)>
1.881

> <Valence>
2.929

> <Coulomb>
46.006

> <VdW>
0.281

> <VdW6>
-4.909

> <VdW12>
5.190

> <Bond>
0.156

> <Angle>
0.974

> <Pdih>
1.799

> <Idih>
0.000

> <Tether>
0.000

$$$$
VeraChem MOL file


 20 19  0  0  0  0  0  0  0  0999 V2000     
   18.8400   17.9119   20.9579 N   0  3  0  0  0  0  0  0  0  0  0  0
   19.7260   17.5673   21.3366 H   0  0  0  0  0  0  0  0  0  0  0  0
   18.0882   17.4556   21.4841 H   0  0  0  0  0  0  0  0  0  0  0  0
   18.7736   17.5738   19.9920 H   0  0  0  0  0  0  0  0  0  0  0  0
   18.7412   19.4236   21.0320 C   0  0  0  0  0  0  0  0  0  0  0  0
   17.7767   19.7008   20.5979 H   0  0  0  0  0  0  0  0  0  0  0  0
   19.5288   19.8555   20.4087 H   0  0  0  0  0  0  0  0  0  0  0  0
   18.8303   19.9978   22.4616 C   0  0  0  0  0  0  0  0  0  0  0  0
   18.3553   20.9879   22.4536 H   0  0  0  0  0  0  0  0  0  0  0  0
   18.2354   19.3846   23.1514 H   0  0  0  0  0  0  0  0  0  0  0  0
   20.2746   20.1690   22.9988 C   0  0  0  0  0  0  0  0  0  0  0  0
   20.2201   20.6879   23.9659 H   0  0  0  0  0  0  0  0  0  0  0  0
   20.8385   20.8320   22.3281 H   0  0  0  0  0  0  0  0  0  0  0  0
   21.0504   18.8441   23.1864 C   0  0  0  0  0  0  0  0  0  0  0  0
   20.4444   18.1351   23.7677 H   0  0  0  0  0  0  0  0  0  0  0  0
   21.2479   18.3826   22.2107 H   0  0  0  0  0  0  0  0  0  0  0  0
   22.3980   19.0714   23.9042 C   0  0  0  0  0  0  0  0  0  0  0  0
   22.2466   19.4969   24.9048 H   0  0  0  0  0  0  0  0  0  0  0  0
   22.9400   18.1239   24.0208 H   0  0  0  0  0  0  0  0  0  0  0  0
   23.0381   19.7575   23.3343 H   0  0  0  0  0  0  0  0  0  0  0  0
  1  2  1  0  0  0  0
  1  3  1  0  0  0  0
  1  4  1  0  0  0  0
  1  5  1  0  0  0  0
  5  6  1  0  0  0  0
  5  7  1  0  0  0  0
  5  8  1  0  0  0  0
  8  9  1  0  0  0  0
  8 10  1  0  0  0  0
  8 11  1  0  0  0  0
 11 12  1  0  0  0  0
 11 13  1  0  0  0  0
 11 14  1  0  0  0  0
 14 15  1  0  0  0  0
 14 16  1  0  0  0  0
 14 17  1  0  0  0  0
 17 18  1  0  0  0  0
 17 19  1  0  0  0  0
 17 20  1  0  0  0  0
M  END
> <VConfSearch Rank>
810

> <Conf_Id>
26

> <Delta U+W>
2.809

> <U+W>
-8.969

> <U>
49.216

> <W>
-58.185

> <W(PB)>
-60.088

> <W(SA)>
1.903

> <Valence>
2.929

> <Coulomb>
46.006

> <VdW>
0.281

> <VdW6>
-4.909

> <VdW12>
5.190

> <Bond>
0.156

> <Angle>
0.974

> <Pdih>
1.799

> <Idih>
0.000

> <Tether>
0.000

$$$$
VeraChem MOL file


 20 19  0  0  0  0  0  0  0  0999 V2000     
   19.5123   21.3397   23.3480 N   0  3  0  0  0  0  0  0  0  0  0  0
   20.3985   21.4599   22.8489 H   0  0  0  0  0  0  0  0  0  0  0  0
   18.8014   21.8701   22.8348 H   0  0  0  0  0  0  0  0  0  0  0  0
   19.6187   21.7908   24.2626 H   0  0  0  0  0  0  0  0  0  0  0  0
   19.1373   19.8766   23.4810 C   0  0  0  0  0  0  0  0  0  0  0  0
   18.2036   19.8223   24.0473 H   0  0  0  0  0  0  0  0  0  0  0  0
   19.9163   19.3776   24.0633 H   0  0  0  0  0  0  0  0  0  0  0  0
   18.9581   19.1574   22.1286 C   0  0  0  0  0  0  0  0  0  0  0  0
   18.6148   18.1320   22.3160 H   0  0  0  0  0  0  0  0  0  0  0  0
   18.1509   19.6453   21.5665 H   0  0  0  0  0  0  0  0  0  0  0  0
   20.2408   19.1259   21.2564 C   0  0  0  0  0  0  0  0  0  0  0  0
   20.4873   20.1469   20.9355 H   0  0  0  0  0  0  0  0  0  0  0  0
   20.0274   18.5683   20.3340 H   0  0  0  0  0  0  0  0  0  0  0  0
   21.4814   18.5033   21.9466 C   0  0  0  0  0  0  0  0  0  0  0  0
   22.3311   18.5524   21.2513 H   0  0  0  0  0  0  0  0  0  0  0  0
   21.7717   19.1029   22.8200 H   0  0  0  0  0  0  0  0  0  0  0  0
   21.2720   17.0326   22.3733 C   0  0  0  0  0  0  0  0  0  0  0  0
   20.9645   16.4141   21.5202 H   0  0  0  0  0  0  0  0  0  0  0  0
   22.2034   16.6122   22.7740 H   0  0  0  0  0  0  0  0  0  0  0  0
   20.5073   16.9450   23.1550 H   0  0  0  0  0  0  0  0  0  0  0  0
  1  2  1  0  0  0  0
  1  3  1  0  0  0  0
  1  4  1  0  0  0  0
  1  5  1  0  0  0  0
  5  6  1  0  0  0  0
  5  7  1  0  0  0  0
  5  8  1  0  0  0  0
  8  9  1  0  0  0  0
  8 10  1  0  0  0  0
  8 11  1  0  0  0  0
 11 12  1  0  0  0  0
 11 13  1  0  0  0  0
 11 14  1  0  0  0  0
 14 15  1  0  0  0  0
 14 16  1  0  0  0  0
 14 17  1  0  0  0  0
 17 18  1  0  0  0  0
 17 19  1  0  0  0  0
 17 20  1  0  0  0  0
M  END
> <VConfSearch Rank>
811

> <Conf_Id>
2

> <Delta U+W>
0.994

> <U+W>
-10.784

> <U>
47.562

> <W>
-58.346

> <W(PB)>
-60.221

> <W(SA)>
1.875

> <Valence>
2.149

> <Coulomb>
45.034

> <VdW>
0.378

> <VdW6>
-5.599

> <VdW12>
5.977

> <Bond>
0.185

> <Angle>
0.935

> <Pdih>
1.028

> <Idih>
0.000

> <Tether>
0.000

$$$$
VeraChem MOL file


 20 19  0  0  0  0  0  0  0  0999 V2000     
   21.5114   20.1188   24.1918 N   0  3  0  0  0  0  0  0  0  0  0  0
   22.5297   20.0468   24.1022 H   0  0  0  0  0  0  0  0  0  0  0  0
   21.2041   20.8649   23.5610 H   0  0  0  0  0  0  0  0  0  0  0  0
   21.3176   20.4345   25.1479 H   0  0  0  0  0  0  0  0  0  0  0  0
   20.8238   18.8034   23.8820 C   0  0  0  0  0  0  0  0  0  0  0  0
   19.7489   18.9392   24.0277 H   0  0  0  0  0  0  0  0  0  0  0  0
   21.1738   18.0654   24.6088 H   0  0  0  0  0  0  0  0  0  0  0  0
   21.0934   18.2843   22.4551 C   0  0  0  0  0  0  0  0  0  0  0  0
   22.1718   18.1191   22.3307 H   0  0  0  0  0  0  0  0  0  0  0  0
   20.6249   17.2981   22.3430 H   0  0  0  0  0  0  0  0  0  0  0  0
   20.5893   19.2307   21.3340 C   0  0  0  0  0  0  0  0  0  0  0  0
   20.7938   18.7653   20.3599 H   0  0  0  0  0  0  0  0  0  0  0  0
   21.1779   20.1579   21.3490 H   0  0  0  0  0  0  0  0  0  0  0  0
   19.0836   19.5906   21.4149 C   0  0  0  0  0  0  0  0  0  0  0  0
   18.8740   20.1440   22.3403 H   0  0  0  0  0  0  0  0  0  0  0  0
   18.8425   20.2775   20.5916 H   0  0  0  0  0  0  0  0  0  0  0  0
   18.1534   18.3596   21.3244 C   0  0  0  0  0  0  0  0  0  0  0  0
   18.2770   17.6969   22.1899 H   0  0  0  0  0  0  0  0  0  0  0  0
   17.1019   18.6734   21.2966 H   0  0  0  0  0  0  0  0  0  0  0  0
   18.3544   17.7789   20.4148 H   0  0  0  0  0  0  0  0  0  0  0  0
  1  2  1  0  0  0  0
  1  3  1  0  0  0  0
  1  4  1  0  0  0  0
  1  5  1  0  0  0  0
  5  6  1  0  0  0  0
  5  7  1  0  0  0  0
  5  8  1  0  0  0  0
  8  9  1  0  0  0  0
  8 10  1  0  0  0  0
  8 11  1  0  0  0  0
 11 12  1  0  0  0  0
 11 13  1  0  0  0  0
 11 14  1  0  0  0  0
 14 15  1  0  0  0  0
 14 16  1  0  0  0  0
 14 17  1  0  0  0  0
 17 18  1  0  0  0  0
 17 19  1  0  0  0  0
 17 20  1  0  0  0  0
M  END
> <VConfSearch Rank>
812

> <Conf_Id>
1

> <Delta U+W>
1.032

> <U+W>
-10.746

> <U>
47.562

> <W>
-58.308

> <W(PB)>
-60.184

> <W(SA)>
1.877

> <Valence>
2.149

> <Coulomb>
45.035

> <VdW>
0.378

> <VdW6>
-5.599

> <VdW12>
5.978

> <Bond>
0.185

> <Angle>
0.935

> <Pdih>
1.028

> <Idih>
0.000

> <Tether>
0.000

$$$$
VeraChem MOL file


 20 19  0  0  0  0  0  0  0  0999 V2000     
   22.3105   19.0653   23.5575 N   0  3  0  0  0  0  0  0  0  0  0  0
   22.7991   19.9493   23.7305 H   0  0  0  0  0  0  0  0  0  0  0  0
   21.5813   18.9777   24.2711 H   0  0  0  0  0  0  0  0  0  0  0  0
   22.9866   18.3132   23.7266 H   0  0  0  0  0  0  0  0  0  0  0  0
   21.7372   19.0022   22.1550 C   0  0  0  0  0  0  0  0  0  0  0  0
   21.2613   18.0283   22.0299 H   0  0  0  0  0  0  0  0  0  0  0  0
   22.5752   19.0591   21.4549 H   0  0  0  0  0  0  0  0  0  0  0  0
   20.7364   20.1340   21.8390 C   0  0  0  0  0  0  0  0  0  0  0  0
   21.2499   21.0934   21.9860 H   0  0  0  0  0  0  0  0  0  0  0  0
   20.4693   20.0965   20.7746 H   0  0  0  0  0  0  0  0  0  0  0  0
   19.4450   20.1188   22.7006 C   0  0  0  0  0  0  0  0  0  0  0  0
   19.0319   21.1370   22.7056 H   0  0  0  0  0  0  0  0  0  0  0  0
   19.6812   19.8944   23.7487 H   0  0  0  0  0  0  0  0  0  0  0  0
   18.3288   19.1691   22.1941 C   0  0  0  0  0  0  0  0  0  0  0  0
   17.4407   19.3144   22.8250 H   0  0  0  0  0  0  0  0  0  0  0  0
   18.0284   19.4591   21.1776 H   0  0  0  0  0  0  0  0  0  0  0  0
   18.7026   17.6704   22.2114 C   0  0  0  0  0  0  0  0  0  0  0  0
   19.1160   17.3734   23.1838 H   0  0  0  0  0  0  0  0  0  0  0  0
   17.8146   17.0534   22.0223 H   0  0  0  0  0  0  0  0  0  0  0  0
   19.4334   17.4319   21.4298 H   0  0  0  0  0  0  0  0  0  0  0  0
  1  2  1  0  0  0  0
  1  3  1  0  0  0  0
  1  4  1  0  0  0  0
  1  5  1  0  0  0  0
  5  6  1  0  0  0  0
  5  7  1  0  0  0  0
  5  8  1  0  0  0  0
  8  9  1  0  0  0  0
  8 10  1  0  0  0  0
  8 11  1  0  0  0  0
 11 12  1  0  0  0  0
 11 13  1  0  0  0  0
 11 14  1  0  0  0  0
 14 15  1  0  0  0  0
 14 16  1  0  0  0  0
 14 17  1  0  0  0  0
 17 18  1  0  0  0  0
 17 19  1  0  0  0  0
 17 20  1  0  0  0  0
M  END
> <VConfSearch Rank>
813

> <Conf_Id>
80

> <Delta U+W>
2.920

> <U+W>
-8.857

> <U>
49.434

> <W>
-58.292

> <W(PB)>
-60.170

> <W(SA)>
1.879

> <Valence>
3.798

> <Coulomb>
45.253

> <VdW>
0.384

> <VdW6>
-5.595

> <VdW12>
5.979

> <Bond>
0.198

> <Angle>
1.368

> <Pdih>
2.231

> <Idih>
0.000

> <Tether>
0.000

$$$$
VeraChem MOL file


 20 19  0  0  0  0  0  0  0  0999 V2000     
   18.0002   18.4875   22.8233 N   0  3  0  0  0  0  0  0  0  0  0  0
   17.2590   18.8753   22.2314 H   0  0  0  0  0  0  0  0  0  0  0  0
   17.5988   17.6815   23.3138 H   0  0  0  0  0  0  0  0  0  0  0  0
   18.2194   19.1912   23.5342 H   0  0  0  0  0  0  0  0  0  0  0  0
   19.2243   18.1023   22.0153 C   0  0  0  0  0  0  0  0  0  0  0  0
   18.9212   17.3221   21.3118 H   0  0  0  0  0  0  0  0  0  0  0  0
   19.9566   17.6707   22.6995 H   0  0  0  0  0  0  0  0  0  0  0  0
   19.8484   19.2761   21.2308 C   0  0  0  0  0  0  0  0  0  0  0  0
   20.6418   18.8940   20.5749 H   0  0  0  0  0  0  0  0  0  0  0  0
   19.0790   19.6868   20.5636 H   0  0  0  0  0  0  0  0  0  0  0  0
   20.4105   20.4222   22.1143 C   0  0  0  0  0  0  0  0  0  0  0  0
   19.7279   20.6410   22.9456 H   0  0  0  0  0  0  0  0  0  0  0  0
   20.4319   21.3367   21.5055 H   0  0  0  0  0  0  0  0  0  0  0  0
   21.8456   20.1919   22.6541 C   0  0  0  0  0  0  0  0  0  0  0  0
   22.5426   20.0688   21.8134 H   0  0  0  0  0  0  0  0  0  0  0  0
   22.1654   21.1018   23.1811 H   0  0  0  0  0  0  0  0  0  0  0  0
   21.9858   18.9926   23.6174 C   0  0  0  0  0  0  0  0  0  0  0  0
   21.8991   18.0390   23.0834 H   0  0  0  0  0  0  0  0  0  0  0  0
   22.9717   19.0038   24.1000 H   0  0  0  0  0  0  0  0  0  0  0  0
   21.2254   19.0249   24.4083 H   0  0  0  0  0  0  0  0  0  0  0  0
  1  2  1  0  0  0  0
  1  3  1  0  0  0  0
  1  4  1  0  0  0  0
  1  5  1  0  0  0  0
  5  6  1  0  0  0  0
  5  7  1  0  0  0  0
  5  8  1  0  0  0  0
  8  9  1  0  0  0  0
  8 10  1  0  0  0  0
  8 11  1  0  0  0  0
 11 12  1  0  0  0  0
 11 13  1  0  0  0  0
 11 14  1  0  0  0  0
 14 15  1  0  0  0  0
 14 16  1  0  0  0  0
 14 17  1  0  0  0  0
 17 18  1  0  0  0  0
 17 19  1  0  0  0  0
 17 20  1  0  0  0  0
M  END
> <VConfSearch Rank>
814

> <Conf_Id>
65

> <Delta U+W>
2.949

> <U+W>
-8.829

> <U>
49.435

> <W>
-58.263

> <W(PB)>
-60.125

> <W(SA)>
1.862

> <Valence>
3.797

> <Coulomb>
45.253

> <VdW>
0.384

> <VdW6>
-5.596

> <VdW12>
5.980

> <Bond>
0.198

> <Angle>
1.369

> <Pdih>
2.230

> <Idih>
0.000

> <Tether>
0.000

$$$$
VeraChem MOL file


 20 19  0  0  0  0  0  0  0  0999 V2000     
   20.8850   18.0099   21.1116 N   0  3  0  0  0  0  0  0  0  0  0  0
   21.8102   17.6494   20.8556 H   0  0  0  0  0  0  0  0  0  0  0  0
   20.6948   17.7094   22.0725 H   0  0  0  0  0  0  0  0  0  0  0  0
   20.2044   17.5415   20.5052 H   0  0  0  0  0  0  0  0  0  0  0  0
   20.8115   19.5187   20.9793 C   0  0  0  0  0  0  0  0  0  0  0  0
   21.0223   19.7583   19.9334 H   0  0  0  0  0  0  0  0  0  0  0  0
   21.5984   19.9635   21.5942 H   0  0  0  0  0  0  0  0  0  0  0  0
   19.4434   20.1159   21.3666 C   0  0  0  0  0  0  0  0  0  0  0  0
   19.3483   21.0866   20.8621 H   0  0  0  0  0  0  0  0  0  0  0  0
   18.6367   19.4897   20.9628 H   0  0  0  0  0  0  0  0  0  0  0  0
   19.2301   20.3495   22.8864 C   0  0  0  0  0  0  0  0  0  0  0  0
   18.2470   20.8244   23.0106 H   0  0  0  0  0  0  0  0  0  0  0  0
   19.9589   21.0829   23.2584 H   0  0  0  0  0  0  0  0  0  0  0  0
   19.2615   19.0745   23.7674 C   0  0  0  0  0  0  0  0  0  0  0  0
   18.5317   19.1932   24.5807 H   0  0  0  0  0  0  0  0  0  0  0  0
   18.9232   18.2018   23.1927 H   0  0  0  0  0  0  0  0  0  0  0  0
   20.6450   18.8129   24.4085 C   0  0  0  0  0  0  0  0  0  0  0  0
   21.4471   18.7521   23.6652 H   0  0  0  0  0  0  0  0  0  0  0  0
   20.9051   19.6187   25.1073 H   0  0  0  0  0  0  0  0  0  0  0  0
   20.6368   17.8734   24.9765 H   0  0  0  0  0  0  0  0  0  0  0  0
  1  2  1  0  0  0  0
  1  3  1  0  0  0  0
  1  4  1  0  0  0  0
  1  5  1  0  0  0  0
  5  6  1  0  0  0  0
  5  7  1  0  0  0  0
  5  8  1  0  0  0  0
  8  9  1  0  0  0  0
  8 10  1  0  0  0  0
  8 11  1  0  0  0  0
 11 12  1  0  0  0  0
 11 13  1  0  0  0  0
 11 14  1  0  0  0  0
 14 15  1  0  0  0  0
 14 16  1  0  0  0  0
 14 17  1  0  0  0  0
 17 18  1  0  0  0  0
 17 19  1  0  0  0  0
 17 20  1  0  0  0  0
M  END
> <VConfSearch Rank>
815

> <Conf_Id>
77

> <Delta U+W>
5.366

> <U+W>
-6.412

> <U>
51.542

> <W>
-57.954

> <W(PB)>
-59.811

> <W(SA)>
1.857

> <Valence>
5.347

> <Coulomb>
45.870

> <VdW>
0.325

> <VdW6>
-6.161

> <VdW12>
6.486

> <Bond>
0.201

> <Angle>
1.484

> <Pdih>
3.662

> <Idih>
0.000

> <Tether>
0.000

$$$$
VeraChem MOL file


 20 19  0  0  0  0  0  0  0  0999 V2000     
   18.4935   19.3200   23.3942 N   0  3  0  0  0  0  0  0  0  0  0  0
   17.6670   19.3679   22.7900 H   0  0  0  0  0  0  0  0  0  0  0  0
   18.8999   18.3863   23.2814 H   0  0  0  0  0  0  0  0  0  0  0  0
   18.1605   19.3942   24.3613 H   0  0  0  0  0  0  0  0  0  0  0  0
   19.4988   20.4048   23.0594 C   0  0  0  0  0  0  0  0  0  0  0  0
   20.3255   20.3491   23.7725 H   0  0  0  0  0  0  0  0  0  0  0  0
   18.9929   21.3638   23.2009 H   0  0  0  0  0  0  0  0  0  0  0  0
   20.0438   20.3310   21.6186 C   0  0  0  0  0  0  0  0  0  0  0  0
   19.2245   20.1083   20.9221 H   0  0  0  0  0  0  0  0  0  0  0  0
   20.4028   21.3324   21.3461 H   0  0  0  0  0  0  0  0  0  0  0  0
   21.2144   19.3342   21.4046 C   0  0  0  0  0  0  0  0  0  0  0  0
   22.0820   19.6410   22.0050 H   0  0  0  0  0  0  0  0  0  0  0  0
   21.5357   19.4252   20.3577 H   0  0  0  0  0  0  0  0  0  0  0  0
   20.8797   17.8452   21.6757 C   0  0  0  0  0  0  0  0  0  0  0  0
   19.8173   17.6480   21.4788 H   0  0  0  0  0  0  0  0  0  0  0  0
   21.4331   17.2255   20.9560 H   0  0  0  0  0  0  0  0  0  0  0  0
   21.2742   17.3830   23.0985 C   0  0  0  0  0  0  0  0  0  0  0  0
   20.9695   16.3416   23.2654 H   0  0  0  0  0  0  0  0  0  0  0  0
   22.3626   17.4339   23.2328 H   0  0  0  0  0  0  0  0  0  0  0  0
   20.8183   17.9987   23.8812 H   0  0  0  0  0  0  0  0  0  0  0  0
  1  2  1  0  0  0  0
  1  3  1  0  0  0  0
  1  4  1  0  0  0  0
  1  5  1  0  0  0  0
  5  6  1  0  0  0  0
  5  7  1  0  0  0  0
  5  8  1  0  0  0  0
  8  9  1  0  0  0  0
  8 10  1  0  0  0  0
  8 11  1  0  0  0  0
 11 12  1  0  0  0  0
 11 13  1  0  0  0  0
 11 14  1  0  0  0  0
 14 15  1  0  0  0  0
 14 16  1  0  0  0  0
 14 17  1  0  0  0  0
 17 18  1  0  0  0  0
 17 19  1  0  0  0  0
 17 20  1  0  0  0  0
M  END
> <VConfSearch Rank>
816

> <Conf_Id>
67

> <Delta U+W>
5.353

> <U+W>
-6.425

> <U>
51.541

> <W>
-57.966

> <W(PB)>
-59.821

> <W(SA)>
1.855

> <Valence>
5.347

> <Coulomb>
45.870

> <VdW>
0.325

> <VdW6>
-6.161

> <VdW12>
6.486

> <Bond>
0.201

> <Angle>
1.485

> <Pdih>
3.662

> <Idih>
0.000

> <Tether>
0.000

$$$$
VeraChem MOL file


 20 19  0  0  0  0  0  0  0  0999 V2000     
   18.7467   22.0064   22.1792 N   0  3  0  0  0  0  0  0  0  0  0  0
   19.2010   22.4661   22.9746 H   0  0  0  0  0  0  0  0  0  0  0  0
   18.6304   22.7189   21.4509 H   0  0  0  0  0  0  0  0  0  0  0  0
   17.8060   21.7371   22.4841 H   0  0  0  0  0  0  0  0  0  0  0  0
   19.5432   20.8171   21.6814 C   0  0  0  0  0  0  0  0  0  0  0  0
   20.5184   21.1805   21.3462 H   0  0  0  0  0  0  0  0  0  0  0  0
   19.0187   20.3967   20.8191 H   0  0  0  0  0  0  0  0  0  0  0  0
   19.7364   19.7278   22.7516 C   0  0  0  0  0  0  0  0  0  0  0  0
   20.2491   20.1583   23.6221 H   0  0  0  0  0  0  0  0  0  0  0  0
   18.7546   19.3771   23.0968 H   0  0  0  0  0  0  0  0  0  0  0  0
   20.5520   18.5352   22.2044 C   0  0  0  0  0  0  0  0  0  0  0  0
   21.5316   18.8905   21.8551 H   0  0  0  0  0  0  0  0  0  0  0  0
   20.0387   18.1102   21.3305 H   0  0  0  0  0  0  0  0  0  0  0  0
   20.7524   17.4349   23.2706 C   0  0  0  0  0  0  0  0  0  0  0  0
   21.2674   17.8554   24.1458 H   0  0  0  0  0  0  0  0  0  0  0  0
   19.7748   17.0751   23.6212 H   0  0  0  0  0  0  0  0  0  0  0  0
   21.5678   16.2456   22.7195 C   0  0  0  0  0  0  0  0  0  0  0  0
   22.5648   16.5681   22.3922 H   0  0  0  0  0  0  0  0  0  0  0  0
   21.6995   15.4754   23.4905 H   0  0  0  0  0  0  0  0  0  0  0  0
   21.0605   15.7817   21.8636 H   0  0  0  0  0  0  0  0  0  0  0  0
  1  2  1  0  0  0  0
  1  3  1  0  0  0  0
  1  4  1  0  0  0  0
  1  5  1  0  0  0  0
  5  6  1  0  0  0  0
  5  7  1  0  0  0  0
  5  8  1  0  0  0  0
  8  9  1  0  0  0  0
  8 10  1  0  0  0  0
  8 11  1  0  0  0  0
 11 12  1  0  0  0  0
 11 13  1  0  0  0  0
 11 14  1  0  0  0  0
 14 15  1  0  0  0  0
 14 16  1  0  0  0  0
 14 17  1  0  0  0  0
 17 18  1  0  0  0  0
 17 19  1  0  0  0  0
 17 20  1  0  0  0  0
M  END
> <VConfSearch Rank>
817

> <Conf_Id>
72

> <Delta U+W>
0.000

> <U+W>
-11.778

> <U>
45.772

> <W>
-57.550

> <W(PB)>
-59.511

> <W(SA)>
1.961

> <Valence>
1.299

> <Coulomb>
44.177

> <VdW>
0.297

> <VdW6>
-3.490

> <VdW12>
3.786

> <Bond>
0.096

> <Angle>
0.381

> <Pdih>
0.822

> <Idih>
0.000

> <Tether>
0.000

$$$$
VeraChem MOL file


 20 19  0  0  0  0  0  0  0  0999 V2000     
   20.3229   19.9234   19.5800 N   0  3  0  0  0  0  0  0  0  0  0  0
   19.3417   20.2184   19.5557 H   0  0  0  0  0  0  0  0  0  0  0  0
   20.8890   20.7692   19.6997 H   0  0  0  0  0  0  0  0  0  0  0  0
   20.5432   19.5473   18.6517 H   0  0  0  0  0  0  0  0  0  0  0  0
   20.5825   18.9082   20.6748 C   0  0  0  0  0  0  0  0  0  0  0  0
   21.6352   18.6173   20.6223 H   0  0  0  0  0  0  0  0  0  0  0  0
   19.9717   18.0252   20.4683 H   0  0  0  0  0  0  0  0  0  0  0  0
   20.2623   19.4414   22.0828 C   0  0  0  0  0  0  0  0  0  0  0  0
   20.8662   20.3371   22.2798 H   0  0  0  0  0  0  0  0  0  0  0  0
   19.2090   19.7467   22.1187 H   0  0  0  0  0  0  0  0  0  0  0  0
   20.5439   18.3747   23.1673 C   0  0  0  0  0  0  0  0  0  0  0  0
   21.5813   18.0265   23.0658 H   0  0  0  0  0  0  0  0  0  0  0  0
   19.9058   17.4963   22.9970 H   0  0  0  0  0  0  0  0  0  0  0  0
   20.3373   18.8923   24.6116 C   0  0  0  0  0  0  0  0  0  0  0  0
   20.6575   18.1112   25.3153 H   0  0  0  0  0  0  0  0  0  0  0  0
   20.9914   19.7564   24.7941 H   0  0  0  0  0  0  0  0  0  0  0  0
   18.8724   19.2740   24.9243 C   0  0  0  0  0  0  0  0  0  0  0  0
   18.1937   18.4350   24.7229 H   0  0  0  0  0  0  0  0  0  0  0  0
   18.7639   19.5463   25.9821 H   0  0  0  0  0  0  0  0  0  0  0  0
   18.5432   20.1339   24.3278 H   0  0  0  0  0  0  0  0  0  0  0  0
  1  2  1  0  0  0  0
  1  3  1  0  0  0  0
  1  4  1  0  0  0  0
  1  5  1  0  0  0  0
  5  6  1  0  0  0  0
  5  7  1  0  0  0  0
  5  8  1  0  0  0  0
  8  9  1  0  0  0  0
  8 10  1  0  0  0  0
  8 11  1  0  0  0  0
 11 12  1  0  0  0  0
 11 13  1  0  0  0  0
 11 14  1  0  0  0  0
 14 15  1  0  0  0  0
 14 16  1  0  0  0  0
 14 17  1  0  0  0  0
 17 18  1  0  0  0  0
 17 19  1  0  0  0  0
 17 20  1  0  0  0  0
M  END
> <VConfSearch Rank>
818

> <Conf_Id>
42

> <Delta U+W>
0.508

> <U+W>
-11.270

> <U>
46.486

> <W>
-57.756

> <W(PB)>
-59.705

> <W(SA)>
1.949

> <Valence>
1.806

> <Coulomb>
44.248

> <VdW>
0.433

> <VdW6>
-4.089

> <VdW12>
4.522

> <Bond>
0.131

> <Angle>
0.628

> <Pdih>
1.047

> <Idih>
0.000

> <Tether>
0.000

$$$$
VeraChem MOL file


 20 19  0  0  0  0  0  0  0  0999 V2000     
   18.9414   17.9562   19.9652 N   0  3  0  0  0  0  0  0  0  0  0  0
   18.0754   18.5040   19.9820 H   0  0  0  0  0  0  0  0  0  0  0  0
   19.6127   18.4715   19.3870 H   0  0  0  0  0  0  0  0  0  0  0  0
   18.7313   17.0832   19.4700 H   0  0  0  0  0  0  0  0  0  0  0  0
   19.4755   17.6979   21.3597 C   0  0  0  0  0  0  0  0  0  0  0  0
   20.3776   17.0870   21.2679 H   0  0  0  0  0  0  0  0  0  0  0  0
   18.7248   17.1214   21.9070 H   0  0  0  0  0  0  0  0  0  0  0  0
   19.8011   18.9891   22.1319 C   0  0  0  0  0  0  0  0  0  0  0  0
   20.5415   19.5677   21.5652 H   0  0  0  0  0  0  0  0  0  0  0  0
   18.8963   19.6067   22.2079 H   0  0  0  0  0  0  0  0  0  0  0  0
   20.3400   18.6783   23.5483 C   0  0  0  0  0  0  0  0  0  0  0  0
   21.2709   18.0994   23.4713 H   0  0  0  0  0  0  0  0  0  0  0  0
   19.6192   18.0351   24.0722 H   0  0  0  0  0  0  0  0  0  0  0  0
   20.5864   19.9428   24.4068 C   0  0  0  0  0  0  0  0  0  0  0  0
   19.6520   20.5127   24.5063 H   0  0  0  0  0  0  0  0  0  0  0  0
   20.8648   19.6303   25.4230 H   0  0  0  0  0  0  0  0  0  0  0  0
   21.6973   20.8599   23.8460 C   0  0  0  0  0  0  0  0  0  0  0  0
   21.4119   21.2956   22.8805 H   0  0  0  0  0  0  0  0  0  0  0  0
   21.8948   21.6902   24.5364 H   0  0  0  0  0  0  0  0  0  0  0  0
   22.6356   20.3065   23.7104 H   0  0  0  0  0  0  0  0  0  0  0  0
  1  2  1  0  0  0  0
  1  3  1  0  0  0  0
  1  4  1  0  0  0  0
  1  5  1  0  0  0  0
  5  6  1  0  0  0  0
  5  7  1  0  0  0  0
  5  8  1  0  0  0  0
  8  9  1  0  0  0  0
  8 10  1  0  0  0  0
  8 11  1  0  0  0  0
 11 12  1  0  0  0  0
 11 13  1  0  0  0  0
 11 14  1  0  0  0  0
 14 15  1  0  0  0  0
 14 16  1  0  0  0  0
 14 17  1  0  0  0  0
 17 18  1  0  0  0  0
 17 19  1  0  0  0  0
 17 20  1  0  0  0  0
M  END
> <VConfSearch Rank>
819

> <Conf_Id>
41

> <Delta U+W>
0.515

> <U+W>
-11.263

> <U>
46.486

> <W>
-57.749

> <W(PB)>
-59.685

> <W(SA)>
1.936

> <Valence>
1.806

> <Coulomb>
44.248

> <VdW>
0.433

> <VdW6>
-4.089

> <VdW12>
4.522

> <Bond>
0.131

> <Angle>
0.628

> <Pdih>
1.047

> <Idih>
0.000

> <Tether>
0.000

$$$$
VeraChem MOL file


 20 19  0  0  0  0  0  0  0  0999 V2000     
   17.9817   19.2932   20.7493 N   0  3  0  0  0  0  0  0  0  0  0  0
   16.9988   19.5120   20.5557 H   0  0  0  0  0  0  0  0  0  0  0  0
   18.5263   20.1246   20.5022 H   0  0  0  0  0  0  0  0  0  0  0  0
   18.2543   18.5485   20.1003 H   0  0  0  0  0  0  0  0  0  0  0  0
   18.1935   18.8879   22.1954 C   0  0  0  0  0  0  0  0  0  0  0  0
   17.5502   18.0265   22.3947 H   0  0  0  0  0  0  0  0  0  0  0  0
   17.8628   19.7132   22.8318 H   0  0  0  0  0  0  0  0  0  0  0  0
   19.6522   18.5234   22.5348 C   0  0  0  0  0  0  0  0  0  0  0  0
   19.6740   18.1351   23.5607 H   0  0  0  0  0  0  0  0  0  0  0  0
   19.9870   17.7062   21.8823 H   0  0  0  0  0  0  0  0  0  0  0  0
   20.6151   19.7311   22.4114 C   0  0  0  0  0  0  0  0  0  0  0  0
   20.2870   20.5359   23.0838 H   0  0  0  0  0  0  0  0  0  0  0  0
   20.5620   20.1384   21.3931 H   0  0  0  0  0  0  0  0  0  0  0  0
   22.0915   19.3757   22.7129 C   0  0  0  0  0  0  0  0  0  0  0  0
   22.4288   18.5803   22.0336 H   0  0  0  0  0  0  0  0  0  0  0  0
   22.7167   20.2524   22.4928 H   0  0  0  0  0  0  0  0  0  0  0  0
   22.3359   18.9469   24.1779 C   0  0  0  0  0  0  0  0  0  0  0  0
   21.8303   18.0021   24.4123 H   0  0  0  0  0  0  0  0  0  0  0  0
   23.4083   18.8001   24.3611 H   0  0  0  0  0  0  0  0  0  0  0  0
   21.9782   19.7123   24.8788 H   0  0  0  0  0  0  0  0  0  0  0  0
  1  2  1  0  0  0  0
  1  3  1  0  0  0  0
  1  4  1  0  0  0  0
  1  5  1  0  0  0  0
  5  6  1  0  0  0  0
  5  7  1  0  0  0  0
  5  8  1  0  0  0  0
  8  9  1  0  0  0  0
  8 10  1  0  0  0  0
  8 11  1  0  0  0  0
 11 12  1  0  0  0  0
 11 13  1  0  0  0  0
 11 14  1  0  0  0  0
 14 15  1  0  0  0  0
 14 16  1  0  0  0  0
 14 17  1  0  0  0  0
 17 18  1  0  0  0  0
 17 19  1  0  0  0  0
 17 20  1  0  0  0  0
M  END
> <VConfSearch Rank>
820

> <Conf_Id>
33

> <Delta U+W>
0.703

> <U+W>
-11.075

> <U>
47.080

> <W>
-58.154

> <W(PB)>
-60.053

> <W(SA)>
1.899

> <Valence>
1.943

> <Coulomb>
44.572

> <VdW>
0.565

> <VdW6>
-4.575

> <VdW12>
5.139

> <Bond>
0.158

> <Angle>
0.700

> <Pdih>
1.085

> <Idih>
0.000

> <Tether>
0.000

$$$$
VeraChem MOL file


 20 19  0  0  0  0  0  0  0  0999 V2000     
   22.8781   19.0541   22.0250 N   0  3  0  0  0  0  0  0  0  0  0  0
   23.7763   19.5168   21.8495 H   0  0  0  0  0  0  0  0  0  0  0  0
   23.0834   18.1893   22.5351 H   0  0  0  0  0  0  0  0  0  0  0  0
   22.4984   18.7847   21.1128 H   0  0  0  0  0  0  0  0  0  0  0  0
   21.9243   19.9496   22.7922 C   0  0  0  0  0  0  0  0  0  0  0  0
   21.7668   20.8594   22.2066 H   0  0  0  0  0  0  0  0  0  0  0  0
   22.4146   20.2290   23.7287 H   0  0  0  0  0  0  0  0  0  0  0  0
   20.5656   19.2925   23.1050 C   0  0  0  0  0  0  0  0  0  0  0  0
   20.7280   18.3700   23.6780 H   0  0  0  0  0  0  0  0  0  0  0  0
   20.0031   19.9722   23.7571 H   0  0  0  0  0  0  0  0  0  0  0  0
   19.7402   18.9879   21.8294 C   0  0  0  0  0  0  0  0  0  0  0  0
   20.3225   18.3367   21.1641 H   0  0  0  0  0  0  0  0  0  0  0  0
   19.5624   19.9186   21.2731 H   0  0  0  0  0  0  0  0  0  0  0  0
   18.3873   18.2940   22.1216 C   0  0  0  0  0  0  0  0  0  0  0  0
   17.9225   18.0128   21.1662 H   0  0  0  0  0  0  0  0  0  0  0  0
   18.5607   17.3553   22.6662 H   0  0  0  0  0  0  0  0  0  0  0  0
   17.3982   19.1798   22.9133 C   0  0  0  0  0  0  0  0  0  0  0  0
   17.2321   20.1385   22.4051 H   0  0  0  0  0  0  0  0  0  0  0  0
   16.4262   18.6786   23.0090 H   0  0  0  0  0  0  0  0  0  0  0  0
   17.7626   19.3861   23.9271 H   0  0  0  0  0  0  0  0  0  0  0  0
  1  2  1  0  0  0  0
  1  3  1  0  0  0  0
  1  4  1  0  0  0  0
  1  5  1  0  0  0  0
  5  6  1  0  0  0  0
  5  7  1  0  0  0  0
  5  8  1  0  0  0  0
  8  9  1  0  0  0  0
  8 10  1  0  0  0  0
  8 11  1  0  0  0  0
 11 12  1  0  0  0  0
 11 13  1  0  0  0  0
 11 14  1  0  0  0  0
 14 15  1  0  0  0  0
 14 16  1  0  0  0  0
 14 17  1  0  0  0  0
 17 18  1  0  0  0  0
 17 19  1  0  0  0  0
 17 20  1  0  0  0  0
M  END
> <VConfSearch Rank>
821

> <Conf_Id>
24

> <Delta U+W>
0.847

> <U+W>
-10.931

> <U>
47.080

> <W>
-58.011

> <W(PB)>
-59.914

> <W(SA)>
1.903

> <Valence>
1.943

> <Coulomb>
44.572

> <VdW>
0.565

> <VdW6>
-4.575

> <VdW12>
5.140

> <Bond>
0.158

> <Angle>
0.700

> <Pdih>
1.085

> <Idih>
0.000

> <Tether>
0.000

$$$$
VeraChem MOL file


 20 19  0  0  0  0  0  0  0  0999 V2000     
   19.5168   16.7129   23.4562 N   0  3  0  0  0  0  0  0  0  0  0  0
   18.5869   16.3558   23.6996 H   0  0  0  0  0  0  0  0  0  0  0  0
   19.7803   16.2752   22.5678 H   0  0  0  0  0  0  0  0  0  0  0  0
   20.1652   16.3627   24.1685 H   0  0  0  0  0  0  0  0  0  0  0  0
   19.5342   18.2257   23.3696 C   0  0  0  0  0  0  0  0  0  0  0  0
   19.2167   18.6234   24.3373 H   0  0  0  0  0  0  0  0  0  0  0  0
   18.8015   18.5274   22.6165 H   0  0  0  0  0  0  0  0  0  0  0  0
   20.9181   18.7952   23.0046 C   0  0  0  0  0  0  0  0  0  0  0  0
   21.6539   18.4521   23.7440 H   0  0  0  0  0  0  0  0  0  0  0  0
   21.2419   18.3895   22.0376 H   0  0  0  0  0  0  0  0  0  0  0  0
   20.9370   20.3437   22.9627 C   0  0  0  0  0  0  0  0  0  0  0  0
   21.9517   20.6808   22.7096 H   0  0  0  0  0  0  0  0  0  0  0  0
   20.7332   20.7302   23.9710 H   0  0  0  0  0  0  0  0  0  0  0  0
   19.9293   20.9804   21.9715 C   0  0  0  0  0  0  0  0  0  0  0  0
   18.8998   20.7412   22.2708 H   0  0  0  0  0  0  0  0  0  0  0  0
   20.0157   22.0740   22.0385 H   0  0  0  0  0  0  0  0  0  0  0  0
   20.1569   20.5522   20.5039 C   0  0  0  0  0  0  0  0  0  0  0  0
   19.4812   21.1000   19.8344 H   0  0  0  0  0  0  0  0  0  0  0  0
   21.1865   20.7621   20.1865 H   0  0  0  0  0  0  0  0  0  0  0  0
   19.9645   19.4815   20.3623 H   0  0  0  0  0  0  0  0  0  0  0  0
  1  2  1  0  0  0  0
  1  3  1  0  0  0  0
  1  4  1  0  0  0  0
  1  5  1  0  0  0  0
  5  6  1  0  0  0  0
  5  7  1  0  0  0  0
  5  8  1  0  0  0  0
  8  9  1  0  0  0  0
  8 10  1  0  0  0  0
  8 11  1  0  0  0  0
 11 12  1  0  0  0  0
 11 13  1  0  0  0  0
 11 14  1  0  0  0  0
 14 15  1  0  0  0  0
 14 16  1  0  0  0  0
 14 17  1  0  0  0  0
 17 18  1  0  0  0  0
 17 19  1  0  0  0  0
 17 20  1  0  0  0  0
M  END
> <VConfSearch Rank>
822

> <Conf_Id>
64

> <Delta U+W>
0.707

> <U+W>
-11.070

> <U>
47.077

> <W>
-58.148

> <W(PB)>
-60.054

> <W(SA)>
1.906

> <Valence>
2.039

> <Coulomb>
44.655

> <VdW>
0.383

> <VdW6>
-4.912

> <VdW12>
5.295

> <Bond>
0.159

> <Angle>
0.856

> <Pdih>
1.024

> <Idih>
0.000

> <Tether>
0.000

$$$$
VeraChem MOL file


 20 19  0  0  0  0  0  0  0  0999 V2000     
   18.2902   20.5216   23.8178 N   0  3  0  0  0  0  0  0  0  0  0  0
   17.3447   20.1304   23.7616 H   0  0  0  0  0  0  0  0  0  0  0  0
   18.6757   20.2484   24.7272 H   0  0  0  0  0  0  0  0  0  0  0  0
   18.1893   21.5419   23.8318 H   0  0  0  0  0  0  0  0  0  0  0  0
   19.1639   20.0577   22.6698 C   0  0  0  0  0  0  0  0  0  0  0  0
   20.1413   20.5354   22.7774 H   0  0  0  0  0  0  0  0  0  0  0  0
   18.7110   20.4068   21.7379 H   0  0  0  0  0  0  0  0  0  0  0  0
   19.3365   18.5279   22.6204 C   0  0  0  0  0  0  0  0  0  0  0  0
   19.7826   18.1753   23.5591 H   0  0  0  0  0  0  0  0  0  0  0  0
   18.3468   18.0569   22.5542 H   0  0  0  0  0  0  0  0  0  0  0  0
   20.1936   18.0599   21.4177 C   0  0  0  0  0  0  0  0  0  0  0  0
   19.6683   18.3117   20.4860 H   0  0  0  0  0  0  0  0  0  0  0  0
   20.2657   16.9637   21.4369 H   0  0  0  0  0  0  0  0  0  0  0  0
   21.6216   18.6609   21.3631 C   0  0  0  0  0  0  0  0  0  0  0  0
   22.1287   18.2777   20.4664 H   0  0  0  0  0  0  0  0  0  0  0  0
   21.5701   19.7509   21.2368 H   0  0  0  0  0  0  0  0  0  0  0  0
   22.4792   18.3212   22.6033 C   0  0  0  0  0  0  0  0  0  0  0  0
   22.5294   17.2364   22.7636 H   0  0  0  0  0  0  0  0  0  0  0  0
   23.5053   18.6889   22.4735 H   0  0  0  0  0  0  0  0  0  0  0  0
   22.0753   18.7852   23.5117 H   0  0  0  0  0  0  0  0  0  0  0  0
  1  2  1  0  0  0  0
  1  3  1  0  0  0  0
  1  4  1  0  0  0  0
  1  5  1  0  0  0  0
  5  6  1  0  0  0  0
  5  7  1  0  0  0  0
  5  8  1  0  0  0  0
  8  9  1  0  0  0  0
  8 10  1  0  0  0  0
  8 11  1  0  0  0  0
 11 12  1  0  0  0  0
 11 13  1  0  0  0  0
 11 14  1  0  0  0  0
 14 15  1  0  0  0  0
 14 16  1  0  0  0  0
 14 17  1  0  0  0  0
 17 18  1  0  0  0  0
 17 19  1  0  0  0  0
 17 20  1  0  0  0  0
M  END
> <VConfSearch Rank>
823

> <Conf_Id>
22

> <Delta U+W>
0.731

> <U+W>
-11.047

> <U>
47.078

> <W>
-58.125

> <W(PB)>
-60.031

> <W(SA)>
1.906

> <Valence>
2.039

> <Coulomb>
44.655

> <VdW>
0.383

> <VdW6>
-4.913

> <VdW12>
5.296

> <Bond>
0.159

> <Angle>
0.856

> <Pdih>
1.024

> <Idih>
0.000

> <Tether>
0.000

$$$$
VeraChem MOL file


 20 19  0  0  0  0  0  0  0  0999 V2000     
   17.4584   19.3334   22.9261 N   0  3  0  0  0  0  0  0  0  0  0  0
   17.0868   18.9688   22.0432 H   0  0  0  0  0  0  0  0  0  0  0  0
   17.1411   18.7032   23.6693 H   0  0  0  0  0  0  0  0  0  0  0  0
   17.0036   20.2378   23.0892 H   0  0  0  0  0  0  0  0  0  0  0  0
   18.9683   19.4592   22.8962 C   0  0  0  0  0  0  0  0  0  0  0  0
   19.2921   19.8771   23.8532 H   0  0  0  0  0  0  0  0  0  0  0  0
   19.2266   20.1648   22.1033 H   0  0  0  0  0  0  0  0  0  0  0  0
   19.6814   18.1182   22.6472 C   0  0  0  0  0  0  0  0  0  0  0  0
   19.3202   17.3848   23.3805 H   0  0  0  0  0  0  0  0  0  0  0  0
   19.3997   17.7324   21.6585 H   0  0  0  0  0  0  0  0  0  0  0  0
   21.2255   18.1985   22.7537 C   0  0  0  0  0  0  0  0  0  0  0  0
   21.6167   17.1768   22.6503 H   0  0  0  0  0  0  0  0  0  0  0  0
   21.5193   18.5280   23.7599 H   0  0  0  0  0  0  0  0  0  0  0  0
   21.9091   19.0839   21.6795 C   0  0  0  0  0  0  0  0  0  0  0  0
   22.9230   18.6961   21.5074 H   0  0  0  0  0  0  0  0  0  0  0  0
   21.3839   18.9915   20.7186 H   0  0  0  0  0  0  0  0  0  0  0  0
   22.0347   20.5724   22.0812 C   0  0  0  0  0  0  0  0  0  0  0  0
   21.0594   21.0594   22.1833 H   0  0  0  0  0  0  0  0  0  0  0  0
   22.5703   20.6794   23.0334 H   0  0  0  0  0  0  0  0  0  0  0  0
   22.5986   21.1268   21.3198 H   0  0  0  0  0  0  0  0  0  0  0  0
  1  2  1  0  0  0  0
  1  3  1  0  0  0  0
  1  4  1  0  0  0  0
  1  5  1  0  0  0  0
  5  6  1  0  0  0  0
  5  7  1  0  0  0  0
  5  8  1  0  0  0  0
  8  9  1  0  0  0  0
  8 10  1  0  0  0  0
  8 11  1  0  0  0  0
 11 12  1  0  0  0  0
 11 13  1  0  0  0  0
 11 14  1  0  0  0  0
 14 15  1  0  0  0  0
 14 16  1  0  0  0  0
 14 17  1  0  0  0  0
 17 18  1  0  0  0  0
 17 19  1  0  0  0  0
 17 20  1  0  0  0  0
M  END
> <VConfSearch Rank>
824

> <Conf_Id>
61

> <Delta U+W>
2.669

> <U+W>
-9.108

> <U>
48.916

> <W>
-58.025

> <W(PB)>
-59.935

> <W(SA)>
1.911

> <Valence>
3.785

> <Coulomb>
44.716

> <VdW>
0.415

> <VdW6>
-4.836

> <VdW12>
5.251

> <Bond>
0.175

> <Angle>
1.195

> <Pdih>
2.415

> <Idih>
0.000

> <Tether>
0.000

$$$$
VeraChem MOL file


 20 19  0  0  0  0  0  0  0  0999 V2000     
   21.7420   20.0428   21.1229 N   0  3  0  0  0  0  0  0  0  0  0  0
   22.5065   19.8750   20.4603 H   0  0  0  0  0  0  0  0  0  0  0  0
   21.7409   21.0473   21.3261 H   0  0  0  0  0  0  0  0  0  0  0  0
   21.9853   19.5593   21.9912 H   0  0  0  0  0  0  0  0  0  0  0  0
   20.4078   19.5792   20.5701 C   0  0  0  0  0  0  0  0  0  0  0  0
   20.4845   18.5181   20.3181 H   0  0  0  0  0  0  0  0  0  0  0  0
   20.2370   20.1349   19.6441 H   0  0  0  0  0  0  0  0  0  0  0  0
   19.2122   19.8073   21.5187 C   0  0  0  0  0  0  0  0  0  0  0  0
   19.2865   20.7979   21.9867 H   0  0  0  0  0  0  0  0  0  0  0  0
   18.3007   19.8316   20.9067 H   0  0  0  0  0  0  0  0  0  0  0  0
   19.0285   18.7112   22.5997 C   0  0  0  0  0  0  0  0  0  0  0  0
   18.8974   17.7350   22.1127 H   0  0  0  0  0  0  0  0  0  0  0  0
   18.0905   18.9134   23.1353 H   0  0  0  0  0  0  0  0  0  0  0  0
   20.1812   18.6242   23.6273 C   0  0  0  0  0  0  0  0  0  0  0  0
   21.0979   18.2754   23.1355 H   0  0  0  0  0  0  0  0  0  0  0  0
   20.3898   19.6210   24.0405 H   0  0  0  0  0  0  0  0  0  0  0  0
   19.8430   17.6549   24.7802 C   0  0  0  0  0  0  0  0  0  0  0  0
   20.6743   17.5972   25.4948 H   0  0  0  0  0  0  0  0  0  0  0  0
   18.9516   17.9873   25.3280 H   0  0  0  0  0  0  0  0  0  0  0  0
   19.6535   16.6420   24.4016 H   0  0  0  0  0  0  0  0  0  0  0  0
  1  2  1  0  0  0  0
  1  3  1  0  0  0  0
  1  4  1  0  0  0  0
  1  5  1  0  0  0  0
  5  6  1  0  0  0  0
  5  7  1  0  0  0  0
  5  8  1  0  0  0  0
  8  9  1  0  0  0  0
  8 10  1  0  0  0  0
  8 11  1  0  0  0  0
 11 12  1  0  0  0  0
 11 13  1  0  0  0  0
 11 14  1  0  0  0  0
 14 15  1  0  0  0  0
 14 16  1  0  0  0  0
 14 17  1  0  0  0  0
 17 18  1  0  0  0  0
 17 19  1  0  0  0  0
 17 20  1  0  0  0  0
M  END
> <VConfSearch Rank>
825

> <Conf_Id>
69

> <Delta U+W>
2.811

> <U+W>
-8.967

> <U>
49.216

> <W>
-58.183

> <W(PB)>
-60.064

> <W(SA)>
1.881

> <Valence>
2.929

> <Coulomb>
46.006

> <VdW>
0.281

> <VdW6>
-4.909

> <VdW12>
5.190

> <Bond>
0.156

> <Angle>
0.974

> <Pdih>
1.799

> <Idih>
0.000

> <Tether>
0.000

$$$$
VeraChem MOL file


 20 19  0  0  0  0  0  0  0  0999 V2000     
   21.0383   21.2225   22.7803 N   0  3  0  0  0  0  0  0  0  0  0  0
   21.4102   20.5759   22.0799 H   0  0  0  0  0  0  0  0  0  0  0  0
   20.4841   21.9245   22.2799 H   0  0  0  0  0  0  0  0  0  0  0  0
   21.8388   21.7144   23.1913 H   0  0  0  0  0  0  0  0  0  0  0  0
   20.2177   20.5055   23.8353 C   0  0  0  0  0  0  0  0  0  0  0  0
   19.8744   21.2658   24.5422 H   0  0  0  0  0  0  0  0  0  0  0  0
   20.8705   19.8135   24.3741 H   0  0  0  0  0  0  0  0  0  0  0  0
   18.9929   19.7471   23.2819 C   0  0  0  0  0  0  0  0  0  0  0  0
   18.2756   19.6264   24.1046 H   0  0  0  0  0  0  0  0  0  0  0  0
   18.4824   20.3574   22.5252 H   0  0  0  0  0  0  0  0  0  0  0  0
   19.3082   18.3380   22.7171 C   0  0  0  0  0  0  0  0  0  0  0  0
   18.3565   17.8513   22.4625 H   0  0  0  0  0  0  0  0  0  0  0  0
   19.7651   17.7220   23.5039 H   0  0  0  0  0  0  0  0  0  0  0  0
   20.2192   18.3371   21.4672 C   0  0  0  0  0  0  0  0  0  0  0  0
   19.8241   19.0354   20.7160 H   0  0  0  0  0  0  0  0  0  0  0  0
   21.2262   18.6805   21.7355 H   0  0  0  0  0  0  0  0  0  0  0  0
   20.3299   16.9285   20.8455 C   0  0  0  0  0  0  0  0  0  0  0  0
   19.3471   16.5593   20.5243 H   0  0  0  0  0  0  0  0  0  0  0  0
   20.9869   16.9431   19.9662 H   0  0  0  0  0  0  0  0  0  0  0  0
   20.7460   16.2111   21.5648 H   0  0  0  0  0  0  0  0  0  0  0  0
  1  2  1  0  0  0  0
  1  3  1  0  0  0  0
  1  4  1  0  0  0  0
  1  5  1  0  0  0  0
  5  6  1  0  0  0  0
  5  7  1  0  0  0  0
  5  8  1  0  0  0  0
  8  9  1  0  0  0  0
  8 10  1  0  0  0  0
  8 11  1  0  0  0  0
 11 12  1  0  0  0  0
 11 13  1  0  0  0  0
 11 14  1  0  0  0  0
 14 15  1  0  0  0  0
 14 16  1  0  0  0  0
 14 17  1  0  0  0  0
 17 18  1  0  0  0  0
 17 19  1  0  0  0  0
 17 20  1  0  0  0  0
M  END
> <VConfSearch Rank>
826

> <Conf_Id>
26

> <Delta U+W>
2.809

> <U+W>
-8.969

> <U>
49.216

> <W>
-58.185

> <W(PB)>
-60.088

> <W(SA)>
1.903

> <Valence>
2.929

> <Coulomb>
46.006

> <VdW>
0.281

> <VdW6>
-4.909

> <VdW12>
5.190

> <Bond>
0.156

> <Angle>
0.974

> <Pdih>
1.799

> <Idih>
0.000

> <Tether>
0.000

$$$$
VeraChem MOL file


 20 19  0  0  0  0  0  0  0  0999 V2000     
   20.3929   21.5233   21.9471 N   0  3  0  0  0  0  0  0  0  0  0  0
   19.6107   21.1770   21.3839 H   0  0  0  0  0  0  0  0  0  0  0  0
   20.0086   22.1961   22.6177 H   0  0  0  0  0  0  0  0  0  0  0  0
   21.0080   22.0483   21.3169 H   0  0  0  0  0  0  0  0  0  0  0  0
   21.1282   20.3933   22.6409 C   0  0  0  0  0  0  0  0  0  0  0  0
   21.9636   20.8301   23.1948 H   0  0  0  0  0  0  0  0  0  0  0  0
   21.5393   19.7331   21.8727 H   0  0  0  0  0  0  0  0  0  0  0  0
   20.2436   19.5792   23.6069 C   0  0  0  0  0  0  0  0  0  0  0  0
   20.8692   18.8373   24.1193 H   0  0  0  0  0  0  0  0  0  0  0  0
   19.8637   20.2447   24.3932 H   0  0  0  0  0  0  0  0  0  0  0  0
   19.0489   18.8672   22.9194 C   0  0  0  0  0  0  0  0  0  0  0  0
   18.3407   19.6208   22.5493 H   0  0  0  0  0  0  0  0  0  0  0  0
   18.4992   18.2895   23.6752 H   0  0  0  0  0  0  0  0  0  0  0  0
   19.4378   17.9268   21.7500 C   0  0  0  0  0  0  0  0  0  0  0  0
   18.5197   17.4964   21.3260 H   0  0  0  0  0  0  0  0  0  0  0  0
   19.9039   18.5016   20.9384 H   0  0  0  0  0  0  0  0  0  0  0  0
   20.3765   16.7751   22.1758 C   0  0  0  0  0  0  0  0  0  0  0  0
   19.9404   16.1940   22.9986 H   0  0  0  0  0  0  0  0  0  0  0  0
   20.5498   16.0898   21.3361 H   0  0  0  0  0  0  0  0  0  0  0  0
   21.3542   17.1519   22.5012 H   0  0  0  0  0  0  0  0  0  0  0  0
  1  2  1  0  0  0  0
  1  3  1  0  0  0  0
  1  4  1  0  0  0  0
  1  5  1  0  0  0  0
  5  6  1  0  0  0  0
  5  7  1  0  0  0  0
  5  8  1  0  0  0  0
  8  9  1  0  0  0  0
  8 10  1  0  0  0  0
  8 11  1  0  0  0  0
 11 12  1  0  0  0  0
 11 13  1  0  0  0  0
 11 14  1  0  0  0  0
 14 15  1  0  0  0  0
 14 16  1  0  0  0  0
 14 17  1  0  0  0  0
 17 18  1  0  0  0  0
 17 19  1  0  0  0  0
 17 20  1  0  0  0  0
M  END
> <VConfSearch Rank>
827

> <Conf_Id>
2

> <Delta U+W>
0.994

> <U+W>
-10.784

> <U>
47.562

> <W>
-58.346

> <W(PB)>
-60.221

> <W(SA)>
1.875

> <Valence>
2.149

> <Coulomb>
45.034

> <VdW>
0.378

> <VdW6>
-5.599

> <VdW12>
5.977

> <Bond>
0.185

> <Angle>
0.935

> <Pdih>
1.028

> <Idih>
0.000

> <Tether>
0.000

$$$$
VeraChem MOL file


 20 19  0  0  0  0  0  0  0  0999 V2000     
   20.3240   21.4798   22.1722 N   0  3  0  0  0  0  0  0  0  0  0  0
   19.5081   22.0373   22.4430 H   0  0  0  0  0  0  0  0  0  0  0  0
   20.8310   21.2481   23.0314 H   0  0  0  0  0  0  0  0  0  0  0  0
   20.9333   22.0916   21.6192 H   0  0  0  0  0  0  0  0  0  0  0  0
   19.9263   20.2354   21.4025 C   0  0  0  0  0  0  0  0  0  0  0  0
   20.8391   19.7062   21.1167 H   0  0  0  0  0  0  0  0  0  0  0  0
   19.4203   20.5569   20.4881 H   0  0  0  0  0  0  0  0  0  0  0  0
   19.0017   19.2872   22.1927 C   0  0  0  0  0  0  0  0  0  0  0  0
   18.0742   19.8178   22.4453 H   0  0  0  0  0  0  0  0  0  0  0  0
   18.7033   18.4578   21.5387 H   0  0  0  0  0  0  0  0  0  0  0  0
   19.6373   18.7238   23.4910 C   0  0  0  0  0  0  0  0  0  0  0  0
   18.9225   18.0374   23.9655 H   0  0  0  0  0  0  0  0  0  0  0  0
   19.7836   19.5422   24.2088 H   0  0  0  0  0  0  0  0  0  0  0  0
   20.9858   17.9868   23.2881 C   0  0  0  0  0  0  0  0  0  0  0  0
   21.7449   18.6814   22.9036 H   0  0  0  0  0  0  0  0  0  0  0  0
   21.3530   17.6513   24.2682 H   0  0  0  0  0  0  0  0  0  0  0  0
   20.8804   16.7626   22.3505 C   0  0  0  0  0  0  0  0  0  0  0  0
   20.6263   17.0608   21.3258 H   0  0  0  0  0  0  0  0  0  0  0  0
   21.8368   16.2255   22.3104 H   0  0  0  0  0  0  0  0  0  0  0  0
   20.1153   16.0593   22.7040 H   0  0  0  0  0  0  0  0  0  0  0  0
  1  2  1  0  0  0  0
  1  3  1  0  0  0  0
  1  4  1  0  0  0  0
  1  5  1  0  0  0  0
  5  6  1  0  0  0  0
  5  7  1  0  0  0  0
  5  8  1  0  0  0  0
  8  9  1  0  0  0  0
  8 10  1  0  0  0  0
  8 11  1  0  0  0  0
 11 12  1  0  0  0  0
 11 13  1  0  0  0  0
 11 14  1  0  0  0  0
 14 15  1  0  0  0  0
 14 16  1  0  0  0  0
 14 17  1  0  0  0  0
 17 18  1  0  0  0  0
 17 19  1  0  0  0  0
 17 20  1  0  0  0  0
M  END
> <VConfSearch Rank>
828

> <Conf_Id>
1

> <Delta U+W>
1.032

> <U+W>
-10.746

> <U>
47.562

> <W>
-58.308

> <W(PB)>
-60.184

> <W(SA)>
1.877

> <Valence>
2.149

> <Coulomb>
45.035

> <VdW>
0.378

> <VdW6>
-5.599

> <VdW12>
5.978

> <Bond>
0.185

> <Angle>
0.935

> <Pdih>
1.028

> <Idih>
0.000

> <Tether>
0.000

$$$$
VeraChem MOL file


 20 19  0  0  0  0  0  0  0  0999 V2000     
   18.4742   19.6789   23.9114 N   0  3  0  0  0  0  0  0  0  0  0  0
   18.1946   20.6619   23.9869 H   0  0  0  0  0  0  0  0  0  0  0  0
   18.0761   19.3169   23.0401 H   0  0  0  0  0  0  0  0  0  0  0  0
   18.0161   19.1788   24.6803 H   0  0  0  0  0  0  0  0  0  0  0  0
   19.9814   19.5161   23.9528 C   0  0  0  0  0  0  0  0  0  0  0  0
   20.2059   18.4497   23.8995 H   0  0  0  0  0  0  0  0  0  0  0  0
   20.3248   19.8837   24.9236 H   0  0  0  0  0  0  0  0  0  0  0  0
   20.7219   20.2777   22.8329 C   0  0  0  0  0  0  0  0  0  0  0  0
   20.4622   21.3415   22.9154 H   0  0  0  0  0  0  0  0  0  0  0  0
   21.8044   20.2186   23.0072 H   0  0  0  0  0  0  0  0  0  0  0  0
   20.3991   19.7925   21.3939 C   0  0  0  0  0  0  0  0  0  0  0  0
   20.6171   20.6190   20.7034 H   0  0  0  0  0  0  0  0  0  0  0  0
   19.3250   19.5954   21.2833 H   0  0  0  0  0  0  0  0  0  0  0  0
   21.2150   18.5634   20.9168 C   0  0  0  0  0  0  0  0  0  0  0  0
   20.9683   18.3745   19.8626 H   0  0  0  0  0  0  0  0  0  0  0  0
   22.2881   18.7997   20.9385 H   0  0  0  0  0  0  0  0  0  0  0  0
   20.9577   17.2693   21.7201 C   0  0  0  0  0  0  0  0  0  0  0  0
   19.8833   17.0657   21.8153 H   0  0  0  0  0  0  0  0  0  0  0  0
   21.4182   16.4095   21.2165 H   0  0  0  0  0  0  0  0  0  0  0  0
   21.3958   17.3281   22.7234 H   0  0  0  0  0  0  0  0  0  0  0  0
  1  2  1  0  0  0  0
  1  3  1  0  0  0  0
  1  4  1  0  0  0  0
  1  5  1  0  0  0  0
  5  6  1  0  0  0  0
  5  7  1  0  0  0  0
  5  8  1  0  0  0  0
  8  9  1  0  0  0  0
  8 10  1  0  0  0  0
  8 11  1  0  0  0  0
 11 12  1  0  0  0  0
 11 13  1  0  0  0  0
 11 14  1  0  0  0  0
 14 15  1  0  0  0  0
 14 16  1  0  0  0  0
 14 17  1  0  0  0  0
 17 18  1  0  0  0  0
 17 19  1  0  0  0  0
 17 20  1  0  0  0  0
M  END
> <VConfSearch Rank>
829

> <Conf_Id>
80

> <Delta U+W>
2.920

> <U+W>
-8.857

> <U>
49.434

> <W>
-58.292

> <W(PB)>
-60.170

> <W(SA)>
1.879

> <Valence>
3.798

> <Coulomb>
45.253

> <VdW>
0.384

> <VdW6>
-5.595

> <VdW12>
5.979

> <Bond>
0.198

> <Angle>
1.368

> <Pdih>
2.231

> <Idih>
0.000

> <Tether>
0.000

$$$$
VeraChem MOL file


 20 19  0  0  0  0  0  0  0  0999 V2000     
   21.6866   20.9979   22.4227 N   0  3  0  0  0  0  0  0  0  0  0  0
   21.7512   21.6144   23.2386 H   0  0  0  0  0  0  0  0  0  0  0  0
   22.4869   21.2162   21.8201 H   0  0  0  0  0  0  0  0  0  0  0  0
   20.8428   21.2648   21.9074 H   0  0  0  0  0  0  0  0  0  0  0  0
   21.6645   19.5348   22.8211 C   0  0  0  0  0  0  0  0  0  0  0  0
   22.6100   19.3175   23.3254 H   0  0  0  0  0  0  0  0  0  0  0  0
   21.6265   18.9384   21.9082 H   0  0  0  0  0  0  0  0  0  0  0  0
   20.4948   19.1608   23.7564 C   0  0  0  0  0  0  0  0  0  0  0  0
   20.6219   18.1262   24.1016 H   0  0  0  0  0  0  0  0  0  0  0  0
   20.5638   19.7879   24.6552 H   0  0  0  0  0  0  0  0  0  0  0  0
   19.0836   19.3317   23.1323 C   0  0  0  0  0  0  0  0  0  0  0  0
   19.0258   20.2629   22.5542 H   0  0  0  0  0  0  0  0  0  0  0  0
   18.3647   19.4530   23.9544 H   0  0  0  0  0  0  0  0  0  0  0  0
   18.5997   18.1400   22.2664 C   0  0  0  0  0  0  0  0  0  0  0  0
   18.5679   17.2269   22.8772 H   0  0  0  0  0  0  0  0  0  0  0  0
   17.5623   18.3355   21.9606 H   0  0  0  0  0  0  0  0  0  0  0  0
   19.4439   17.8810   20.9991 C   0  0  0  0  0  0  0  0  0  0  0  0
   20.4249   17.4615   21.2514 H   0  0  0  0  0  0  0  0  0  0  0  0
   18.9407   17.1556   20.3468 H   0  0  0  0  0  0  0  0  0  0  0  0
   19.5920   18.8034   20.4228 H   0  0  0  0  0  0  0  0  0  0  0  0
  1  2  1  0  0  0  0
  1  3  1  0  0  0  0
  1  4  1  0  0  0  0
  1  5  1  0  0  0  0
  5  6  1  0  0  0  0
  5  7  1  0  0  0  0
  5  8  1  0  0  0  0
  8  9  1  0  0  0  0
  8 10  1  0  0  0  0
  8 11  1  0  0  0  0
 11 12  1  0  0  0  0
 11 13  1  0  0  0  0
 11 14  1  0  0  0  0
 14 15  1  0  0  0  0
 14 16  1  0  0  0  0
 14 17  1  0  0  0  0
 17 18  1  0  0  0  0
 17 19  1  0  0  0  0
 17 20  1  0  0  0  0
M  END
> <VConfSearch Rank>
830

> <Conf_Id>
65

> <Delta U+W>
2.949

> <U+W>
-8.829

> <U>
49.435

> <W>
-58.263

> <W(PB)>
-60.125

> <W(SA)>
1.862

> <Valence>
3.797

> <Coulomb>
45.253

> <VdW>
0.384

> <VdW6>
-5.596

> <VdW12>
5.980

> <Bond>
0.198

> <Angle>
1.369

> <Pdih>
2.230

> <Idih>
0.000

> <Tether>
0.000

$$$$
VeraChem MOL file


 20 19  0  0  0  0  0  0  0  0999 V2000     
   18.2388   18.6181   22.5470 N   0  3  0  0  0  0  0  0  0  0  0  0
   17.4225   18.7576   23.1517 H   0  0  0  0  0  0  0  0  0  0  0  0
   18.4921   19.5320   22.1593 H   0  0  0  0  0  0  0  0  0  0  0  0
   17.9337   18.0293   21.7656 H   0  0  0  0  0  0  0  0  0  0  0  0
   19.3987   17.9963   23.3004 C   0  0  0  0  0  0  0  0  0  0  0  0
   19.0528   17.0305   23.6788 H   0  0  0  0  0  0  0  0  0  0  0  0
   19.6398   18.6298   24.1581 H   0  0  0  0  0  0  0  0  0  0  0  0
   20.6596   17.7774   22.4398 C   0  0  0  0  0  0  0  0  0  0  0  0
   21.2531   16.9841   22.9134 H   0  0  0  0  0  0  0  0  0  0  0  0
   20.3737   17.3876   21.4538 H   0  0  0  0  0  0  0  0  0  0  0  0
   21.5747   19.0210   22.2791 C   0  0  0  0  0  0  0  0  0  0  0  0
   22.4524   18.7095   21.6960 H   0  0  0  0  0  0  0  0  0  0  0  0
   21.9673   19.3262   23.2590 H   0  0  0  0  0  0  0  0  0  0  0  0
   20.9295   20.2350   21.5631 C   0  0  0  0  0  0  0  0  0  0  0  0
   21.6987   20.7319   20.9551 H   0  0  0  0  0  0  0  0  0  0  0  0
   20.1630   19.8989   20.8519 H   0  0  0  0  0  0  0  0  0  0  0  0
   20.3529   21.2831   22.5443 C   0  0  0  0  0  0  0  0  0  0  0  0
   19.6249   20.8513   23.2393 H   0  0  0  0  0  0  0  0  0  0  0  0
   21.1550   21.7314   23.1452 H   0  0  0  0  0  0  0  0  0  0  0  0
   19.8582   22.0954   21.9959 H   0  0  0  0  0  0  0  0  0  0  0  0
  1  2  1  0  0  0  0
  1  3  1  0  0  0  0
  1  4  1  0  0  0  0
  1  5  1  0  0  0  0
  5  6  1  0  0  0  0
  5  7  1  0  0  0  0
  5  8  1  0  0  0  0
  8  9  1  0  0  0  0
  8 10  1  0  0  0  0
  8 11  1  0  0  0  0
 11 12  1  0  0  0  0
 11 13  1  0  0  0  0
 11 14  1  0  0  0  0
 14 15  1  0  0  0  0
 14 16  1  0  0  0  0
 14 17  1  0  0  0  0
 17 18  1  0  0  0  0
 17 19  1  0  0  0  0
 17 20  1  0  0  0  0
M  END
> <VConfSearch Rank>
831

> <Conf_Id>
77

> <Delta U+W>
5.366

> <U+W>
-6.412

> <U>
51.542

> <W>
-57.954

> <W(PB)>
-59.811

> <W(SA)>
1.857

> <Valence>
5.347

> <Coulomb>
45.870

> <VdW>
0.325

> <VdW6>
-6.161

> <VdW12>
6.486

> <Bond>
0.201

> <Angle>
1.484

> <Pdih>
3.662

> <Idih>
0.000

> <Tether>
0.000

$$$$
VeraChem MOL file


 20 19  0  0  0  0  0  0  0  0999 V2000     
   18.7072   17.7583   22.6257 N   0  3  0  0  0  0  0  0  0  0  0  0
   18.5975   17.3355   23.5529 H   0  0  0  0  0  0  0  0  0  0  0  0
   18.5753   18.7686   22.7337 H   0  0  0  0  0  0  0  0  0  0  0  0
   17.9367   17.4092   22.0458 H   0  0  0  0  0  0  0  0  0  0  0  0
   20.0594   17.4389   22.0182 C   0  0  0  0  0  0  0  0  0  0  0  0
   20.0977   17.8563   21.0085 H   0  0  0  0  0  0  0  0  0  0  0  0
   20.1244   16.3504   21.9379 H   0  0  0  0  0  0  0  0  0  0  0  0
   21.2551   17.9549   22.8442 C   0  0  0  0  0  0  0  0  0  0  0  0
   21.0761   17.7715   23.9120 H   0  0  0  0  0  0  0  0  0  0  0  0
   22.1304   17.3468   22.5798 H   0  0  0  0  0  0  0  0  0  0  0  0
   21.6259   19.4443   22.6116 C   0  0  0  0  0  0  0  0  0  0  0  0
   21.9350   19.5947   21.5679 H   0  0  0  0  0  0  0  0  0  0  0  0
   22.5188   19.6583   23.2154 H   0  0  0  0  0  0  0  0  0  0  0  0
   20.5303   20.4715   22.9951 C   0  0  0  0  0  0  0  0  0  0  0  0
   19.9034   20.0797   23.8074 H   0  0  0  0  0  0  0  0  0  0  0  0
   21.0184   21.3671   23.4049 H   0  0  0  0  0  0  0  0  0  0  0  0
   19.6645   20.9142   21.7918 C   0  0  0  0  0  0  0  0  0  0  0  0
   18.8689   21.5968   22.1178 H   0  0  0  0  0  0  0  0  0  0  0  0
   20.2754   21.4488   21.0527 H   0  0  0  0  0  0  0  0  0  0  0  0
   19.1953   20.0680   21.2786 H   0  0  0  0  0  0  0  0  0  0  0  0
  1  2  1  0  0  0  0
  1  3  1  0  0  0  0
  1  4  1  0  0  0  0
  1  5  1  0  0  0  0
  5  6  1  0  0  0  0
  5  7  1  0  0  0  0
  5  8  1  0  0  0  0
  8  9  1  0  0  0  0
  8 10  1  0  0  0  0
  8 11  1  0  0  0  0
 11 12  1  0  0  0  0
 11 13  1  0  0  0  0
 11 14  1  0  0  0  0
 14 15  1  0  0  0  0
 14 16  1  0  0  0  0
 14 17  1  0  0  0  0
 17 18  1  0  0  0  0
 17 19  1  0  0  0  0
 17 20  1  0  0  0  0
M  END
> <VConfSearch Rank>
832

> <Conf_Id>
67

> <Delta U+W>
5.353

> <U+W>
-6.425

> <U>
51.541

> <W>
-57.966

> <W(PB)>
-59.821

> <W(SA)>
1.855

> <Valence>
5.347

> <Coulomb>
45.870

> <VdW>
0.325

> <VdW6>
-6.161

> <VdW12>
6.486

> <Bond>
0.201

> <Angle>
1.485

> <Pdih>
3.662

> <Idih>
0.000

> <Tether>
0.000

$$$$
VeraChem MOL file


 20 19  0  0  0  0  0  0  0  0999 V2000     
   18.0129   16.7721   22.9323 N   0  3  0  0  0  0  0  0  0  0  0  0
   17.3340   17.0519   22.2174 H   0  0  0  0  0  0  0  0  0  0  0  0
   18.0146   15.7469   22.9555 H   0  0  0  0  0  0  0  0  0  0  0  0
   17.6468   17.0889   23.8357 H   0  0  0  0  0  0  0  0  0  0  0  0
   19.3933   17.3313   22.6527 C   0  0  0  0  0  0  0  0  0  0  0  0
   19.7320   16.9302   21.6936 H   0  0  0  0  0  0  0  0  0  0  0  0
   20.0683   16.9702   23.4334 H   0  0  0  0  0  0  0  0  0  0  0  0
   19.4257   18.8697   22.6111 C   0  0  0  0  0  0  0  0  0  0  0  0
   18.7346   19.2284   21.8367 H   0  0  0  0  0  0  0  0  0  0  0  0
   19.0697   19.2683   23.5705 H   0  0  0  0  0  0  0  0  0  0  0  0
   20.8487   19.3982   22.3239 C   0  0  0  0  0  0  0  0  0  0  0  0
   21.2038   18.9933   21.3659 H   0  0  0  0  0  0  0  0  0  0  0  0
   21.5385   19.0332   23.0977 H   0  0  0  0  0  0  0  0  0  0  0  0
   20.8933   20.9421   22.2797 C   0  0  0  0  0  0  0  0  0  0  0  0
   20.2062   21.3115   21.5055 H   0  0  0  0  0  0  0  0  0  0  0  0
   20.5409   21.3514   23.2370 H   0  0  0  0  0  0  0  0  0  0  0  0
   22.3169   21.4656   21.9925 C   0  0  0  0  0  0  0  0  0  0  0  0
   22.6840   21.1009   21.0243 H   0  0  0  0  0  0  0  0  0  0  0  0
   22.3282   22.5630   21.9649 H   0  0  0  0  0  0  0  0  0  0  0  0
   23.0214   21.1412   22.7694 H   0  0  0  0  0  0  0  0  0  0  0  0
  1  2  1  0  0  0  0
  1  3  1  0  0  0  0
  1  4  1  0  0  0  0
  1  5  1  0  0  0  0
  5  6  1  0  0  0  0
  5  7  1  0  0  0  0
  5  8  1  0  0  0  0
  8  9  1  0  0  0  0
  8 10  1  0  0  0  0
  8 11  1  0  0  0  0
 11 12  1  0  0  0  0
 11 13  1  0  0  0  0
 11 14  1  0  0  0  0
 14 15  1  0  0  0  0
 14 16  1  0  0  0  0
 14 17  1  0  0  0  0
 17 18  1  0  0  0  0
 17 19  1  0  0  0  0
 17 20  1  0  0  0  0
M  END
> <VConfSearch Rank>
833

> <Conf_Id>
72

> <Delta U+W>
0.000

> <U+W>
-11.778

> <U>
45.772

> <W>
-57.550

> <W(PB)>
-59.511

> <W(SA)>
1.961

> <Valence>
1.299

> <Coulomb>
44.177

> <VdW>
0.297

> <VdW6>
-3.490

> <VdW12>
3.786

> <Bond>
0.096

> <Angle>
0.381

> <Pdih>
0.822

> <Idih>
0.000

> <Tether>
0.000

$$$$
VeraChem MOL file


 20 19  0  0  0  0  0  0  0  0999 V2000     
   18.7132   17.4521   20.4528 N   0  3  0  0  0  0  0  0  0  0  0  0
   19.6061   17.2131   20.0101 H   0  0  0  0  0  0  0  0  0  0  0  0
   18.4697   16.6771   21.0777 H   0  0  0  0  0  0  0  0  0  0  0  0
   18.0074   17.4670   19.7090 H   0  0  0  0  0  0  0  0  0  0  0  0
   18.7821   18.7743   21.1901 C   0  0  0  0  0  0  0  0  0  0  0  0
   17.7929   18.9791   21.6085 H   0  0  0  0  0  0  0  0  0  0  0  0
   19.0150   19.5555   20.4615 H   0  0  0  0  0  0  0  0  0  0  0  0
   19.8326   18.7859   22.3151 C   0  0  0  0  0  0  0  0  0  0  0  0
   19.6040   17.9897   23.0360 H   0  0  0  0  0  0  0  0  0  0  0  0
   20.8177   18.5618   21.8868 H   0  0  0  0  0  0  0  0  0  0  0  0
   19.8666   20.1516   23.0409 C   0  0  0  0  0  0  0  0  0  0  0  0
   18.8550   20.3933   23.3957 H   0  0  0  0  0  0  0  0  0  0  0  0
   20.1408   20.9424   22.3289 H   0  0  0  0  0  0  0  0  0  0  0  0
   20.8335   20.1852   24.2495 C   0  0  0  0  0  0  0  0  0  0  0  0
   20.7184   21.1482   24.7664 H   0  0  0  0  0  0  0  0  0  0  0  0
   20.5482   19.4112   24.9757 H   0  0  0  0  0  0  0  0  0  0  0  0
   22.3173   20.0061   23.8549 C   0  0  0  0  0  0  0  0  0  0  0  0
   22.6203   20.7511   23.1078 H   0  0  0  0  0  0  0  0  0  0  0  0
   22.9655   20.1286   24.7323 H   0  0  0  0  0  0  0  0  0  0  0  0
   22.5076   19.0076   23.4422 H   0  0  0  0  0  0  0  0  0  0  0  0
  1  2  1  0  0  0  0
  1  3  1  0  0  0  0
  1  4  1  0  0  0  0
  1  5  1  0  0  0  0
  5  6  1  0  0  0  0
  5  7  1  0  0  0  0
  5  8  1  0  0  0  0
  8  9  1  0  0  0  0
  8 10  1  0  0  0  0
  8 11  1  0  0  0  0
 11 12  1  0  0  0  0
 11 13  1  0  0  0  0
 11 14  1  0  0  0  0
 14 15  1  0  0  0  0
 14 16  1  0  0  0  0
 14 17  1  0  0  0  0
 17 18  1  0  0  0  0
 17 19  1  0  0  0  0
 17 20  1  0  0  0  0
M  END
> <VConfSearch Rank>
834

> <Conf_Id>
42

> <Delta U+W>
0.508

> <U+W>
-11.270

> <U>
46.486

> <W>
-57.756

> <W(PB)>
-59.705

> <W(SA)>
1.949

> <Valence>
1.806

> <Coulomb>
44.248

> <VdW>
0.433

> <VdW6>
-4.089

> <VdW12>
4.522

> <Bond>
0.131

> <Angle>
0.628

> <Pdih>
1.047

> <Idih>
0.000

> <Tether>
0.000

$$$$
VeraChem MOL file


 20 19  0  0  0  0  0  0  0  0999 V2000     
   18.4168   17.6289   24.4714 N   0  3  0  0  0  0  0  0  0  0  0  0
   18.9071   17.9280   25.3203 H   0  0  0  0  0  0  0  0  0  0  0  0
   17.6522   18.2932   24.3152 H   0  0  0  0  0  0  0  0  0  0  0  0
   17.9851   16.7227   24.6813 H   0  0  0  0  0  0  0  0  0  0  0  0
   19.3481   17.5461   23.2787 C   0  0  0  0  0  0  0  0  0  0  0  0
   18.7680   17.1944   22.4213 H   0  0  0  0  0  0  0  0  0  0  0  0
   20.1167   16.8012   23.5019 H   0  0  0  0  0  0  0  0  0  0  0  0
   20.0142   18.8909   22.9365 C   0  0  0  0  0  0  0  0  0  0  0  0
   19.2339   19.6347   22.7319 H   0  0  0  0  0  0  0  0  0  0  0  0
   20.5826   19.2480   23.8055 H   0  0  0  0  0  0  0  0  0  0  0  0
   20.9562   18.7592   21.7164 C   0  0  0  0  0  0  0  0  0  0  0  0
   20.3791   18.4462   20.8353 H   0  0  0  0  0  0  0  0  0  0  0  0
   21.6825   17.9575   21.9101 H   0  0  0  0  0  0  0  0  0  0  0  0
   21.7323   20.0588   21.3919 C   0  0  0  0  0  0  0  0  0  0  0  0
   22.3298   20.3625   22.2629 H   0  0  0  0  0  0  0  0  0  0  0  0
   22.4495   19.8493   20.5859 H   0  0  0  0  0  0  0  0  0  0  0  0
   20.8195   21.2272   20.9549 C   0  0  0  0  0  0  0  0  0  0  0  0
   20.1640   21.5546   21.7713 H   0  0  0  0  0  0  0  0  0  0  0  0
   21.4224   22.0923   20.6498 H   0  0  0  0  0  0  0  0  0  0  0  0
   20.1905   20.9398   20.1023 H   0  0  0  0  0  0  0  0  0  0  0  0
  1  2  1  0  0  0  0
  1  3  1  0  0  0  0
  1  4  1  0  0  0  0
  1  5  1  0  0  0  0
  5  6  1  0  0  0  0
  5  7  1  0  0  0  0
  5  8  1  0  0  0  0
  8  9  1  0  0  0  0
  8 10  1  0  0  0  0
  8 11  1  0  0  0  0
 11 12  1  0  0  0  0
 11 13  1  0  0  0  0
 11 14  1  0  0  0  0
 14 15  1  0  0  0  0
 14 16  1  0  0  0  0
 14 17  1  0  0  0  0
 17 18  1  0  0  0  0
 17 19  1  0  0  0  0
 17 20  1  0  0  0  0
M  END
> <VConfSearch Rank>
835

> <Conf_Id>
41

> <Delta U+W>
0.515

> <U+W>
-11.263

> <U>
46.486

> <W>
-57.749

> <W(PB)>
-59.685

> <W(SA)>
1.936

> <Valence>
1.806

> <Coulomb>
44.248

> <VdW>
0.433

> <VdW6>
-4.089

> <VdW12>
4.522

> <Bond>
0.131

> <Angle>
0.628

> <Pdih>
1.047

> <Idih>
0.000

> <Tether>
0.000

$$$$
VeraChem MOL file


 20 19  0  0  0  0  0  0  0  0999 V2000     
   17.8150   17.7145   21.9947 N   0  3  0  0  0  0  0  0  0  0  0  0
   17.2355   16.8735   22.0865 H   0  0  0  0  0  0  0  0  0  0  0  0
   17.5441   18.3474   22.7530 H   0  0  0  0  0  0  0  0  0  0  0  0
   17.5480   18.1653   21.1139 H   0  0  0  0  0  0  0  0  0  0  0  0
   19.2949   17.3852   22.0347 C   0  0  0  0  0  0  0  0  0  0  0  0
   19.4974   16.6757   21.2278 H   0  0  0  0  0  0  0  0  0  0  0  0
   19.5071   16.8882   22.9852 H   0  0  0  0  0  0  0  0  0  0  0  0
   20.2128   18.6132   21.8753 C   0  0  0  0  0  0  0  0  0  0  0  0
   21.2470   18.2550   21.7993 H   0  0  0  0  0  0  0  0  0  0  0  0
   19.9854   19.1201   20.9282 H   0  0  0  0  0  0  0  0  0  0  0  0
   20.0892   19.6100   23.0551 C   0  0  0  0  0  0  0  0  0  0  0  0
   20.3402   19.1018   23.9965 H   0  0  0  0  0  0  0  0  0  0  0  0
   19.0452   19.9370   23.1495 H   0  0  0  0  0  0  0  0  0  0  0  0
   20.9768   20.8683   22.8947 C   0  0  0  0  0  0  0  0  0  0  0  0
   20.7201   21.3880   21.9609 H   0  0  0  0  0  0  0  0  0  0  0  0
   20.7449   21.5689   23.7091 H   0  0  0  0  0  0  0  0  0  0  0  0
   22.4918   20.5617   22.9198 C   0  0  0  0  0  0  0  0  0  0  0  0
   22.7979   19.9648   22.0518 H   0  0  0  0  0  0  0  0  0  0  0  0
   23.0723   21.4932   22.8993 H   0  0  0  0  0  0  0  0  0  0  0  0
   22.7692   20.0141   23.8298 H   0  0  0  0  0  0  0  0  0  0  0  0
  1  2  1  0  0  0  0
  1  3  1  0  0  0  0
  1  4  1  0  0  0  0
  1  5  1  0  0  0  0
  5  6  1  0  0  0  0
  5  7  1  0  0  0  0
  5  8  1  0  0  0  0
  8  9  1  0  0  0  0
  8 10  1  0  0  0  0
  8 11  1  0  0  0  0
 11 12  1  0  0  0  0
 11 13  1  0  0  0  0
 11 14  1  0  0  0  0
 14 15  1  0  0  0  0
 14 16  1  0  0  0  0
 14 17  1  0  0  0  0
 17 18  1  0  0  0  0
 17 19  1  0  0  0  0
 17 20  1  0  0  0  0
M  END
> <VConfSearch Rank>
836

> <Conf_Id>
33

> <Delta U+W>
0.703

> <U+W>
-11.075

> <U>
47.080

> <W>
-58.154

> <W(PB)>
-60.053

> <W(SA)>
1.899

> <Valence>
1.943

> <Coulomb>
44.572

> <VdW>
0.565

> <VdW6>
-4.575

> <VdW12>
5.139

> <Bond>
0.158

> <Angle>
0.700

> <Pdih>
1.085

> <Idih>
0.000

> <Tether>
0.000

$$$$
VeraChem MOL file


 20 19  0  0  0  0  0  0  0  0999 V2000     
   21.7605   20.7248   24.0421 N   0  3  0  0  0  0  0  0  0  0  0  0
   22.6475   20.9220   24.5173 H   0  0  0  0  0  0  0  0  0  0  0  0
   21.3423   21.6298   23.8049 H   0  0  0  0  0  0  0  0  0  0  0  0
   21.1467   20.2787   24.7299 H   0  0  0  0  0  0  0  0  0  0  0  0
   21.9605   19.8559   22.8152 C   0  0  0  0  0  0  0  0  0  0  0  0
   22.4288   18.9206   23.1336 H   0  0  0  0  0  0  0  0  0  0  0  0
   22.6571   20.3760   22.1520 H   0  0  0  0  0  0  0  0  0  0  0  0
   20.6594   19.5496   22.0478 C   0  0  0  0  0  0  0  0  0  0  0  0
   20.1825   20.4910   21.7446 H   0  0  0  0  0  0  0  0  0  0  0  0
   20.9276   19.0217   21.1242 H   0  0  0  0  0  0  0  0  0  0  0  0
   19.6663   18.6916   22.8718 C   0  0  0  0  0  0  0  0  0  0  0  0
   19.4297   19.2079   23.8115 H   0  0  0  0  0  0  0  0  0  0  0  0
   20.1426   17.7419   23.1523 H   0  0  0  0  0  0  0  0  0  0  0  0
   18.3377   18.4042   22.1307 C   0  0  0  0  0  0  0  0  0  0  0  0
   17.6525   17.8937   22.8219 H   0  0  0  0  0  0  0  0  0  0  0  0
   17.8505   19.3514   21.8599 H   0  0  0  0  0  0  0  0  0  0  0  0
   18.5124   17.5294   20.8682 C   0  0  0  0  0  0  0  0  0  0  0  0
   19.0260   16.5891   21.1068 H   0  0  0  0  0  0  0  0  0  0  0  0
   17.5346   17.2771   20.4378 H   0  0  0  0  0  0  0  0  0  0  0  0
   19.0883   18.0492   20.0927 H   0  0  0  0  0  0  0  0  0  0  0  0
  1  2  1  0  0  0  0
  1  3  1  0  0  0  0
  1  4  1  0  0  0  0
  1  5  1  0  0  0  0
  5  6  1  0  0  0  0
  5  7  1  0  0  0  0
  5  8  1  0  0  0  0
  8  9  1  0  0  0  0
  8 10  1  0  0  0  0
  8 11  1  0  0  0  0
 11 12  1  0  0  0  0
 11 13  1  0  0  0  0
 11 14  1  0  0  0  0
 14 15  1  0  0  0  0
 14 16  1  0  0  0  0
 14 17  1  0  0  0  0
 17 18  1  0  0  0  0
 17 19  1  0  0  0  0
 17 20  1  0  0  0  0
M  END
> <VConfSearch Rank>
837

> <Conf_Id>
24

> <Delta U+W>
0.847

> <U+W>
-10.931

> <U>
47.080

> <W>
-58.011

> <W(PB)>
-59.914

> <W(SA)>
1.903

> <Valence>
1.943

> <Coulomb>
44.572

> <VdW>
0.565

> <VdW6>
-4.575

> <VdW12>
5.140

> <Bond>
0.158

> <Angle>
0.700

> <Pdih>
1.085

> <Idih>
0.000

> <Tether>
0.000

$$$$
VeraChem MOL file


 20 19  0  0  0  0  0  0  0  0999 V2000     
   21.5193   18.7685   24.8200 N   0  3  0  0  0  0  0  0  0  0  0  0
   21.9623   17.8941   25.1211 H   0  0  0  0  0  0  0  0  0  0  0  0
   22.2725   19.3959   24.5213 H   0  0  0  0  0  0  0  0  0  0  0  0
   21.0914   19.1864   25.6522 H   0  0  0  0  0  0  0  0  0  0  0  0
   20.5052   18.5359   23.7183 C   0  0  0  0  0  0  0  0  0  0  0  0
   19.7515   17.8388   24.0942 H   0  0  0  0  0  0  0  0  0  0  0  0
   21.0231   18.0632   22.8796 H   0  0  0  0  0  0  0  0  0  0  0  0
   19.8210   19.8312   23.2421 C   0  0  0  0  0  0  0  0  0  0  0  0
   19.3395   20.3191   24.0999 H   0  0  0  0  0  0  0  0  0  0  0  0
   20.5777   20.5352   22.8729 H   0  0  0  0  0  0  0  0  0  0  0  0
   18.7540   19.5781   22.1478 C   0  0  0  0  0  0  0  0  0  0  0  0
   18.2999   20.5376   21.8644 H   0  0  0  0  0  0  0  0  0  0  0  0
   17.9415   18.9740   22.5750 H   0  0  0  0  0  0  0  0  0  0  0  0
   19.2834   18.8719   20.8733 C   0  0  0  0  0  0  0  0  0  0  0  0
   19.6462   17.8648   21.1203 H   0  0  0  0  0  0  0  0  0  0  0  0
   18.4440   18.7274   20.1788 H   0  0  0  0  0  0  0  0  0  0  0  0
   20.3972   19.6628   20.1502 C   0  0  0  0  0  0  0  0  0  0  0  0
   20.6705   19.1687   19.2089 H   0  0  0  0  0  0  0  0  0  0  0  0
   20.0661   20.6816   19.9105 H   0  0  0  0  0  0  0  0  0  0  0  0
   21.3051   19.7310   20.7623 H   0  0  0  0  0  0  0  0  0  0  0  0
  1  2  1  0  0  0  0
  1  3  1  0  0  0  0
  1  4  1  0  0  0  0
  1  5  1  0  0  0  0
  5  6  1  0  0  0  0
  5  7  1  0  0  0  0
  5  8  1  0  0  0  0
  8  9  1  0  0  0  0
  8 10  1  0  0  0  0
  8 11  1  0  0  0  0
 11 12  1  0  0  0  0
 11 13  1  0  0  0  0
 11 14  1  0  0  0  0
 14 15  1  0  0  0  0
 14 16  1  0  0  0  0
 14 17  1  0  0  0  0
 17 18  1  0  0  0  0
 17 19  1  0  0  0  0
 17 20  1  0  0  0  0
M  END
> <VConfSearch Rank>
838

> <Conf_Id>
64

> <Delta U+W>
0.707

> <U+W>
-11.070

> <U>
47.077

> <W>
-58.148

> <W(PB)>
-60.054

> <W(SA)>
1.906

> <Valence>
2.039

> <Coulomb>
44.655

> <VdW>
0.383

> <VdW6>
-4.912

> <VdW12>
5.295

> <Bond>
0.159

> <Angle>
0.856

> <Pdih>
1.024

> <Idih>
0.000

> <Tether>
0.000

$$$$
VeraChem MOL file


 20 19  0  0  0  0  0  0  0  0999 V2000     
   22.2956   20.6072   23.3665 N   0  3  0  0  0  0  0  0  0  0  0  0
   22.1015   21.1380   24.2214 H   0  0  0  0  0  0  0  0  0  0  0  0
   22.8276   19.7759   23.6424 H   0  0  0  0  0  0  0  0  0  0  0  0
   22.9210   21.1841   22.7942 H   0  0  0  0  0  0  0  0  0  0  0  0
   21.0252   20.2462   22.6235 C   0  0  0  0  0  0  0  0  0  0  0  0
   21.3090   19.7118   21.7131 H   0  0  0  0  0  0  0  0  0  0  0  0
   20.5263   21.1755   22.3356 H   0  0  0  0  0  0  0  0  0  0  0  0
   20.0630   19.3783   23.4561 C   0  0  0  0  0  0  0  0  0  0  0  0
   20.5659   18.4492   23.7534 H   0  0  0  0  0  0  0  0  0  0  0  0
   19.8173   19.9065   24.3869 H   0  0  0  0  0  0  0  0  0  0  0  0
   18.7478   19.0520   22.7051 C   0  0  0  0  0  0  0  0  0  0  0  0
   18.1977   19.9864   22.5271 H   0  0  0  0  0  0  0  0  0  0  0  0
   18.1065   18.4437   23.3578 H   0  0  0  0  0  0  0  0  0  0  0  0
   18.9355   18.3184   21.3524 C   0  0  0  0  0  0  0  0  0  0  0  0
   17.9462   18.1558   20.9020 H   0  0  0  0  0  0  0  0  0  0  0  0
   19.4857   18.9566   20.6476 H   0  0  0  0  0  0  0  0  0  0  0  0
   19.6512   16.9551   21.4868 C   0  0  0  0  0  0  0  0  0  0  0  0
   19.1316   16.3051   22.2027 H   0  0  0  0  0  0  0  0  0  0  0  0
   19.6757   16.4367   20.5196 H   0  0  0  0  0  0  0  0  0  0  0  0
   20.6888   17.0762   21.8220 H   0  0  0  0  0  0  0  0  0  0  0  0
  1  2  1  0  0  0  0
  1  3  1  0  0  0  0
  1  4  1  0  0  0  0
  1  5  1  0  0  0  0
  5  6  1  0  0  0  0
  5  7  1  0  0  0  0
  5  8  1  0  0  0  0
  8  9  1  0  0  0  0
  8 10  1  0  0  0  0
  8 11  1  0  0  0  0
 11 12  1  0  0  0  0
 11 13  1  0  0  0  0
 11 14  1  0  0  0  0
 14 15  1  0  0  0  0
 14 16  1  0  0  0  0
 14 17  1  0  0  0  0
 17 18  1  0  0  0  0
 17 19  1  0  0  0  0
 17 20  1  0  0  0  0
M  END
> <VConfSearch Rank>
839

> <Conf_Id>
22

> <Delta U+W>
0.731

> <U+W>
-11.047

> <U>
47.078

> <W>
-58.125

> <W(PB)>
-60.031

> <W(SA)>
1.906

> <Valence>
2.039

> <Coulomb>
44.655

> <VdW>
0.383

> <VdW6>
-4.913

> <VdW12>
5.296

> <Bond>
0.159

> <Angle>
0.856

> <Pdih>
1.024

> <Idih>
0.000

> <Tether>
0.000

$$$$
VeraChem MOL file


 20 19  0  0  0  0  0  0  0  0999 V2000     
   22.3758   20.7708   22.9911 N   0  3  0  0  0  0  0  0  0  0  0  0
   23.0988   20.2992   22.4386 H   0  0  0  0  0  0  0  0  0  0  0  0
   22.2828   21.7205   22.6171 H   0  0  0  0  0  0  0  0  0  0  0  0
   22.7420   20.8616   23.9446 H   0  0  0  0  0  0  0  0  0  0  0  0
   21.0602   20.0192   22.9619 C   0  0  0  0  0  0  0  0  0  0  0  0
   20.3474   20.5603   23.5900 H   0  0  0  0  0  0  0  0  0  0  0  0
   21.2317   19.0335   23.4003 H   0  0  0  0  0  0  0  0  0  0  0  0
   20.4862   19.8610   21.5427 C   0  0  0  0  0  0  0  0  0  0  0  0
   20.4322   20.8514   21.0713 H   0  0  0  0  0  0  0  0  0  0  0  0
   21.1780   19.2649   20.9329 H   0  0  0  0  0  0  0  0  0  0  0  0
   19.0750   19.2216   21.5034 C   0  0  0  0  0  0  0  0  0  0  0  0
   18.7321   19.2434   20.4596 H   0  0  0  0  0  0  0  0  0  0  0  0
   18.3619   19.8428   22.0628 H   0  0  0  0  0  0  0  0  0  0  0  0
   19.0092   17.7533   21.9984 C   0  0  0  0  0  0  0  0  0  0  0  0
   18.1757   17.2535   21.4851 H   0  0  0  0  0  0  0  0  0  0  0  0
   19.9164   17.2093   21.7002 H   0  0  0  0  0  0  0  0  0  0  0  0
   18.7771   17.6150   23.5215 C   0  0  0  0  0  0  0  0  0  0  0  0
   19.6135   18.0101   24.1073 H   0  0  0  0  0  0  0  0  0  0  0  0
   17.8654   18.1427   23.8304 H   0  0  0  0  0  0  0  0  0  0  0  0
   18.6571   16.5586   23.7947 H   0  0  0  0  0  0  0  0  0  0  0  0
  1  2  1  0  0  0  0
  1  3  1  0  0  0  0
  1  4  1  0  0  0  0
  1  5  1  0  0  0  0
  5  6  1  0  0  0  0
  5  7  1  0  0  0  0
  5  8  1  0  0  0  0
  8  9  1  0  0  0  0
  8 10  1  0  0  0  0
  8 11  1  0  0  0  0
 11 12  1  0  0  0  0
 11 13  1  0  0  0  0
 11 14  1  0  0  0  0
 14 15  1  0  0  0  0
 14 16  1  0  0  0  0
 14 17  1  0  0  0  0
 17 18  1  0  0  0  0
 17 19  1  0  0  0  0
 17 20  1  0  0  0  0
M  END
> <VConfSearch Rank>
840

> <Conf_Id>
61

> <Delta U+W>
2.669

> <U+W>
-9.108

> <U>
48.916

> <W>
-58.025

> <W(PB)>
-59.935

> <W(SA)>
1.911

> <Valence>
3.785

> <Coulomb>
44.716

> <VdW>
0.415

> <VdW6>
-4.836

> <VdW12>
5.251

> <Bond>
0.175

> <Angle>
1.195

> <Pdih>
2.415

> <Idih>
0.000

> <Tether>
0.000

$$$$
VeraChem MOL file


 20 19  0  0  0  0  0  0  0  0999 V2000     
   22.1035   18.3882   23.4042 N   0  3  0  0  0  0  0  0  0  0  0  0
   22.5186   17.8576   24.1773 H   0  0  0  0  0  0  0  0  0  0  0  0
   22.8748   18.8559   22.9177 H   0  0  0  0  0  0  0  0  0  0  0  0
   21.5211   19.1196   23.8202 H   0  0  0  0  0  0  0  0  0  0  0  0
   21.3101   17.4935   22.4712 C   0  0  0  0  0  0  0  0  0  0  0  0
   20.5409   16.9781   23.0526 H   0  0  0  0  0  0  0  0  0  0  0  0
   22.0036   16.7409   22.0863 H   0  0  0  0  0  0  0  0  0  0  0  0
   20.6610   18.2313   21.2812 C   0  0  0  0  0  0  0  0  0  0  0  0
   21.3668   18.9589   20.8590 H   0  0  0  0  0  0  0  0  0  0  0  0
   20.4809   17.4925   20.4889 H   0  0  0  0  0  0  0  0  0  0  0  0
   19.3089   18.9163   21.6073 C   0  0  0  0  0  0  0  0  0  0  0  0
   18.5963   18.1641   21.9733 H   0  0  0  0  0  0  0  0  0  0  0  0
   18.8878   19.3046   20.6695 H   0  0  0  0  0  0  0  0  0  0  0  0
   19.4062   20.0743   22.6280 C   0  0  0  0  0  0  0  0  0  0  0  0
   19.6811   19.6831   23.6155 H   0  0  0  0  0  0  0  0  0  0  0  0
   20.1945   20.7766   22.3225 H   0  0  0  0  0  0  0  0  0  0  0  0
   18.0682   20.8336   22.7554 C   0  0  0  0  0  0  0  0  0  0  0  0
   18.1512   21.6452   23.4899 H   0  0  0  0  0  0  0  0  0  0  0  0
   17.7723   21.2778   21.7961 H   0  0  0  0  0  0  0  0  0  0  0  0
   17.2635   20.1630   23.0842 H   0  0  0  0  0  0  0  0  0  0  0  0
  1  2  1  0  0  0  0
  1  3  1  0  0  0  0
  1  4  1  0  0  0  0
  1  5  1  0  0  0  0
  5  6  1  0  0  0  0
  5  7  1  0  0  0  0
  5  8  1  0  0  0  0
  8  9  1  0  0  0  0
  8 10  1  0  0  0  0
  8 11  1  0  0  0  0
 11 12  1  0  0  0  0
 11 13  1  0  0  0  0
 11 14  1  0  0  0  0
 14 15  1  0  0  0  0
 14 16  1  0  0  0  0
 14 17  1  0  0  0  0
 17 18  1  0  0  0  0
 17 19  1  0  0  0  0
 17 20  1  0  0  0  0
M  END
> <VConfSearch Rank>
841

> <Conf_Id>
69

> <Delta U+W>
2.811

> <U+W>
-8.967

> <U>
49.216

> <W>
-58.183

> <W(PB)>
-60.064

> <W(SA)>
1.881

> <Valence>
2.929

> <Coulomb>
46.006

> <VdW>
0.281

> <VdW6>
-4.909

> <VdW12>
5.190

> <Bond>
0.156

> <Angle>
0.974

> <Pdih>
1.799

> <Idih>
0.000

> <Tether>
0.000

$$$$
VeraChem MOL file


 20 19  0  0  0  0  0  0  0  0999 V2000     
   17.8206   18.8829   22.1391 N   0  3  0  0  0  0  0  0  0  0  0  0
   18.1907   19.5759   22.7946 H   0  0  0  0  0  0  0  0  0  0  0  0
   17.5395   19.3871   21.2924 H   0  0  0  0  0  0  0  0  0  0  0  0
   16.9644   18.5017   22.5554 H   0  0  0  0  0  0  0  0  0  0  0  0
   18.8309   17.7931   21.8356 C   0  0  0  0  0  0  0  0  0  0  0  0
   18.3493   17.0968   21.1436 H   0  0  0  0  0  0  0  0  0  0  0  0
   19.0497   17.2528   22.7606 H   0  0  0  0  0  0  0  0  0  0  0  0
   20.1435   18.3007   21.2023 C   0  0  0  0  0  0  0  0  0  0  0  0
   20.6021   17.4594   20.6658 H   0  0  0  0  0  0  0  0  0  0  0  0
   19.9246   19.0600   20.4398 H   0  0  0  0  0  0  0  0  0  0  0  0
   21.1836   18.8390   22.2183 C   0  0  0  0  0  0  0  0  0  0  0  0
   22.1112   19.0605   21.6725 H   0  0  0  0  0  0  0  0  0  0  0  0
   21.4348   18.0482   22.9387 H   0  0  0  0  0  0  0  0  0  0  0  0
   20.7377   20.1087   22.9808 C   0  0  0  0  0  0  0  0  0  0  0  0
   20.3828   20.8670   22.2688 H   0  0  0  0  0  0  0  0  0  0  0  0
   19.9013   19.8712   23.6500 H   0  0  0  0  0  0  0  0  0  0  0  0
   21.8886   20.6992   23.8233 C   0  0  0  0  0  0  0  0  0  0  0  0
   22.7356   20.9894   23.1880 H   0  0  0  0  0  0  0  0  0  0  0  0
   21.5535   21.5932   24.3651 H   0  0  0  0  0  0  0  0  0  0  0  0
   22.2494   19.9727   24.5630 H   0  0  0  0  0  0  0  0  0  0  0  0
  1  2  1  0  0  0  0
  1  3  1  0  0  0  0
  1  4  1  0  0  0  0
  1  5  1  0  0  0  0
  5  6  1  0  0  0  0
  5  7  1  0  0  0  0
  5  8  1  0  0  0  0
  8  9  1  0  0  0  0
  8 10  1  0  0  0  0
  8 11  1  0  0  0  0
 11 12  1  0  0  0  0
 11 13  1  0  0  0  0
 11 14  1  0  0  0  0
 14 15  1  0  0  0  0
 14 16  1  0  0  0  0
 14 17  1  0  0  0  0
 17 18  1  0  0  0  0
 17 19  1  0  0  0  0
 17 20  1  0  0  0  0
M  END
> <VConfSearch Rank>
842

> <Conf_Id>
26

> <Delta U+W>
2.809

> <U+W>
-8.969

> <U>
49.216

> <W>
-58.185

> <W(PB)>
-60.088

> <W(SA)>
1.903

> <Valence>
2.929

> <Coulomb>
46.006

> <VdW>
0.281

> <VdW6>
-4.909

> <VdW12>
5.190

> <Bond>
0.156

> <Angle>
0.974

> <Pdih>
1.799

> <Idih>
0.000

> <Tether>
0.000

$$$$
VeraChem MOL file


 20 19  0  0  0  0  0  0  0  0999 V2000     
   20.4538   21.0195   20.9321 N   0  3  0  0  0  0  0  0  0  0  0  0
   20.1782   21.4206   21.8332 H   0  0  0  0  0  0  0  0  0  0  0  0
   21.4183   21.3147   20.7515 H   0  0  0  0  0  0  0  0  0  0  0  0
   19.8678   21.4597   20.2151 H   0  0  0  0  0  0  0  0  0  0  0  0
   20.3156   19.5095   20.9243 C   0  0  0  0  0  0  0  0  0  0  0  0
   20.5949   19.1547   19.9285 H   0  0  0  0  0  0  0  0  0  0  0  0
   19.2633   19.2637   21.0889 H   0  0  0  0  0  0  0  0  0  0  0  0
   21.1864   18.8021   21.9824 C   0  0  0  0  0  0  0  0  0  0  0  0
   21.0845   17.7167   21.8562 H   0  0  0  0  0  0  0  0  0  0  0  0
   22.2431   19.0282   21.7875 H   0  0  0  0  0  0  0  0  0  0  0  0
   20.8424   19.1910   23.4444 C   0  0  0  0  0  0  0  0  0  0  0  0
   21.1014   20.2453   23.6106 H   0  0  0  0  0  0  0  0  0  0  0  0
   21.4869   18.6165   24.1240 H   0  0  0  0  0  0  0  0  0  0  0  0
   19.3616   18.9685   23.8453 C   0  0  0  0  0  0  0  0  0  0  0  0
   19.2271   19.2953   24.8859 H   0  0  0  0  0  0  0  0  0  0  0  0
   18.7038   19.6079   23.2412 H   0  0  0  0  0  0  0  0  0  0  0  0
   18.9082   17.4959   23.7237 C   0  0  0  0  0  0  0  0  0  0  0  0
   19.5607   16.8326   24.3061 H   0  0  0  0  0  0  0  0  0  0  0  0
   17.8847   17.3762   24.1018 H   0  0  0  0  0  0  0  0  0  0  0  0
   18.9162   17.1569   22.6804 H   0  0  0  0  0  0  0  0  0  0  0  0
  1  2  1  0  0  0  0
  1  3  1  0  0  0  0
  1  4  1  0  0  0  0
  1  5  1  0  0  0  0
  5  6  1  0  0  0  0
  5  7  1  0  0  0  0
  5  8  1  0  0  0  0
  8  9  1  0  0  0  0
  8 10  1  0  0  0  0
  8 11  1  0  0  0  0
 11 12  1  0  0  0  0
 11 13  1  0  0  0  0
 11 14  1  0  0  0  0
 14 15  1  0  0  0  0
 14 16  1  0  0  0  0
 14 17  1  0  0  0  0
 17 18  1  0  0  0  0
 17 19  1  0  0  0  0
 17 20  1  0  0  0  0
M  END
> <VConfSearch Rank>
843

> <Conf_Id>
2

> <Delta U+W>
0.994

> <U+W>
-10.784

> <U>
47.562

> <W>
-58.346

> <W(PB)>
-60.221

> <W(SA)>
1.875

> <Valence>
2.149

> <Coulomb>
45.034

> <VdW>
0.378

> <VdW6>
-5.599

> <VdW12>
5.977

> <Bond>
0.185

> <Angle>
0.935

> <Pdih>
1.028

> <Idih>
0.000

> <Tether>
0.000

$$$$
VeraChem MOL file


 20 19  0  0  0  0  0  0  0  0999 V2000     
   21.5398   18.8292   20.4832 N   0  3  0  0  0  0  0  0  0  0  0  0
   22.5552   18.7945   20.6162 H   0  0  0  0  0  0  0  0  0  0  0  0
   21.1722   17.9020   20.7159 H   0  0  0  0  0  0  0  0  0  0  0  0
   21.3748   18.9754   19.4818 H   0  0  0  0  0  0  0  0  0  0  0  0
   20.8977   19.9147   21.3248 C   0  0  0  0  0  0  0  0  0  0  0  0
   19.8255   19.9201   21.1123 H   0  0  0  0  0  0  0  0  0  0  0  0
   21.3119   20.8742   21.0032 H   0  0  0  0  0  0  0  0  0  0  0  0
   21.1265   19.7408   22.8400 C   0  0  0  0  0  0  0  0  0  0  0  0
   22.2045   19.7709   23.0463 H   0  0  0  0  0  0  0  0  0  0  0  0
   20.6974   20.6044   23.3640 H   0  0  0  0  0  0  0  0  0  0  0  0
   20.5318   18.4309   23.4211 C   0  0  0  0  0  0  0  0  0  0  0  0
   20.7132   18.4106   24.5046 H   0  0  0  0  0  0  0  0  0  0  0  0
   21.0791   17.5708   23.0126 H   0  0  0  0  0  0  0  0  0  0  0  0
   19.0169   18.2324   23.1595 C   0  0  0  0  0  0  0  0  0  0  0  0
   18.8242   18.1528   22.0811 H   0  0  0  0  0  0  0  0  0  0  0  0
   18.7094   17.2702   23.5925 H   0  0  0  0  0  0  0  0  0  0  0  0
   18.1387   19.3524   23.7622 C   0  0  0  0  0  0  0  0  0  0  0  0
   18.3297   20.3183   23.2783 H   0  0  0  0  0  0  0  0  0  0  0  0
   17.0742   19.1208   23.6278 H   0  0  0  0  0  0  0  0  0  0  0  0
   18.3246   19.4639   24.8383 H   0  0  0  0  0  0  0  0  0  0  0  0
  1  2  1  0  0  0  0
  1  3  1  0  0  0  0
  1  4  1  0  0  0  0
  1  5  1  0  0  0  0
  5  6  1  0  0  0  0
  5  7  1  0  0  0  0
  5  8  1  0  0  0  0
  8  9  1  0  0  0  0
  8 10  1  0  0  0  0
  8 11  1  0  0  0  0
 11 12  1  0  0  0  0
 11 13  1  0  0  0  0
 11 14  1  0  0  0  0
 14 15  1  0  0  0  0
 14 16  1  0  0  0  0
 14 17  1  0  0  0  0
 17 18  1  0  0  0  0
 17 19  1  0  0  0  0
 17 20  1  0  0  0  0
M  END
> <VConfSearch Rank>
844

> <Conf_Id>
1

> <Delta U+W>
1.032

> <U+W>
-10.746

> <U>
47.562

> <W>
-58.308

> <W(PB)>
-60.184

> <W(SA)>
1.877

> <Valence>
2.149

> <Coulomb>
45.035

> <VdW>
0.378

> <VdW6>
-5.599

> <VdW12>
5.978

> <Bond>
0.185

> <Angle>
0.935

> <Pdih>
1.028

> <Idih>
0.000

> <Tether>
0.000

$$$$
VeraChem MOL file


 20 19  0  0  0  0  0  0  0  0999 V2000     
   19.3092   17.2297   23.5012 N   0  3  0  0  0  0  0  0  0  0  0  0
   18.3550   17.2863   23.8706 H   0  0  0  0  0  0  0  0  0  0  0  0
   19.2347   17.1145   22.4864 H   0  0  0  0  0  0  0  0  0  0  0  0
   19.7211   16.3666   23.8710 H   0  0  0  0  0  0  0  0  0  0  0  0
   20.1310   18.4493   23.8712 C   0  0  0  0  0  0  0  0  0  0  0  0
   21.1380   18.3089   23.4752 H   0  0  0  0  0  0  0  0  0  0  0  0
   20.2002   18.4801   24.9620 H   0  0  0  0  0  0  0  0  0  0  0  0
   19.5349   19.7800   23.3645 C   0  0  0  0  0  0  0  0  0  0  0  0
   18.5217   19.8777   23.7762 H   0  0  0  0  0  0  0  0  0  0  0  0
   20.1101   20.6177   23.7804 H   0  0  0  0  0  0  0  0  0  0  0  0
   19.4640   19.9136   21.8194 C   0  0  0  0  0  0  0  0  0  0  0  0
   18.6824   20.6482   21.5808 H   0  0  0  0  0  0  0  0  0  0  0  0
   19.1289   18.9727   21.3642 H   0  0  0  0  0  0  0  0  0  0  0  0
   20.7729   20.3935   21.1409 C   0  0  0  0  0  0  0  0  0  0  0  0
   20.5727   20.5379   20.0699 H   0  0  0  0  0  0  0  0  0  0  0  0
   21.0524   21.3818   21.5321 H   0  0  0  0  0  0  0  0  0  0  0  0
   21.9673   19.4255   21.2902 C   0  0  0  0  0  0  0  0  0  0  0  0
   21.6871   18.4006   21.0149 H   0  0  0  0  0  0  0  0  0  0  0  0
   22.7930   19.7343   20.6362 H   0  0  0  0  0  0  0  0  0  0  0  0
   22.3528   19.4220   22.3166 H   0  0  0  0  0  0  0  0  0  0  0  0
  1  2  1  0  0  0  0
  1  3  1  0  0  0  0
  1  4  1  0  0  0  0
  1  5  1  0  0  0  0
  5  6  1  0  0  0  0
  5  7  1  0  0  0  0
  5  8  1  0  0  0  0
  8  9  1  0  0  0  0
  8 10  1  0  0  0  0
  8 11  1  0  0  0  0
 11 12  1  0  0  0  0
 11 13  1  0  0  0  0
 11 14  1  0  0  0  0
 14 15  1  0  0  0  0
 14 16  1  0  0  0  0
 14 17  1  0  0  0  0
 17 18  1  0  0  0  0
 17 19  1  0  0  0  0
 17 20  1  0  0  0  0
M  END
> <VConfSearch Rank>
845

> <Conf_Id>
80

> <Delta U+W>
2.920

> <U+W>
-8.857

> <U>
49.434

> <W>
-58.292

> <W(PB)>
-60.170

> <W(SA)>
1.879

> <Valence>
3.798

> <Coulomb>
45.253

> <VdW>
0.384

> <VdW6>
-5.595

> <VdW12>
5.979

> <Bond>
0.198

> <Angle>
1.368

> <Pdih>
2.231

> <Idih>
0.000

> <Tether>
0.000

$$$$
VeraChem MOL file


 20 19  0  0  0  0  0  0  0  0999 V2000     
   21.0939   18.8130   24.6069 N   0  3  0  0  0  0  0  0  0  0  0  0
   20.6328   19.2301   25.4214 H   0  0  0  0  0  0  0  0  0  0  0  0
   21.7593   18.1194   24.9639 H   0  0  0  0  0  0  0  0  0  0  0  0
   21.6437   19.5517   24.1589 H   0  0  0  0  0  0  0  0  0  0  0  0
   20.0951   18.1937   23.6485 C   0  0  0  0  0  0  0  0  0  0  0  0
   19.5805   17.3911   24.1838 H   0  0  0  0  0  0  0  0  0  0  0  0
   20.6530   17.7440   22.8257 H   0  0  0  0  0  0  0  0  0  0  0  0
   19.0495   19.1917   23.1066 C   0  0  0  0  0  0  0  0  0  0  0  0
   18.2912   18.6462   22.5295 H   0  0  0  0  0  0  0  0  0  0  0  0
   18.5187   19.6273   23.9635 H   0  0  0  0  0  0  0  0  0  0  0  0
   19.6349   20.3406   22.2419 C   0  0  0  0  0  0  0  0  0  0  0  0
   20.5597   20.7286   22.6880 H   0  0  0  0  0  0  0  0  0  0  0  0
   18.9238   21.1778   22.2690 H   0  0  0  0  0  0  0  0  0  0  0  0
   19.8743   19.9846   20.7519 C   0  0  0  0  0  0  0  0  0  0  0  0
   18.9250   19.6881   20.2845 H   0  0  0  0  0  0  0  0  0  0  0  0
   20.1978   20.8951   20.2282 H   0  0  0  0  0  0  0  0  0  0  0  0
   20.9298   18.8818   20.5156 C   0  0  0  0  0  0  0  0  0  0  0  0
   20.5544   17.8977   20.8199 H   0  0  0  0  0  0  0  0  0  0  0  0
   21.1807   18.8159   19.4490 H   0  0  0  0  0  0  0  0  0  0  0  0
   21.8563   19.0918   21.0652 H   0  0  0  0  0  0  0  0  0  0  0  0
  1  2  1  0  0  0  0
  1  3  1  0  0  0  0
  1  4  1  0  0  0  0
  1  5  1  0  0  0  0
  5  6  1  0  0  0  0
  5  7  1  0  0  0  0
  5  8  1  0  0  0  0
  8  9  1  0  0  0  0
  8 10  1  0  0  0  0
  8 11  1  0  0  0  0
 11 12  1  0  0  0  0
 11 13  1  0  0  0  0
 11 14  1  0  0  0  0
 14 15  1  0  0  0  0
 14 16  1  0  0  0  0
 14 17  1  0  0  0  0
 17 18  1  0  0  0  0
 17 19  1  0  0  0  0
 17 20  1  0  0  0  0
M  END
> <VConfSearch Rank>
846

> <Conf_Id>
65

> <Delta U+W>
2.949

> <U+W>
-8.829

> <U>
49.435

> <W>
-58.263

> <W(PB)>
-60.125

> <W(SA)>
1.862

> <Valence>
3.797

> <Coulomb>
45.253

> <VdW>
0.384

> <VdW6>
-5.596

> <VdW12>
5.980

> <Bond>
0.198

> <Angle>
1.369

> <Pdih>
2.230

> <Idih>
0.000

> <Tether>
0.000

$$$$
VeraChem MOL file


 20 19  0  0  0  0  0  0  0  0999 V2000     
   21.0918   19.2687   24.1672 N   0  3  0  0  0  0  0  0  0  0  0  0
   21.3932   18.6011   24.8850 H   0  0  0  0  0  0  0  0  0  0  0  0
   21.5447   18.9986   23.2888 H   0  0  0  0  0  0  0  0  0  0  0  0
   21.4671   20.1840   24.4351 H   0  0  0  0  0  0  0  0  0  0  0  0
   19.5824   19.2996   24.0246 C   0  0  0  0  0  0  0  0  0  0  0  0
   19.1758   19.5958   24.9954 H   0  0  0  0  0  0  0  0  0  0  0  0
   19.2302   18.2885   23.8036 H   0  0  0  0  0  0  0  0  0  0  0  0
   19.0748   20.2785   22.9464 C   0  0  0  0  0  0  0  0  0  0  0  0
   18.0374   20.5394   23.1945 H   0  0  0  0  0  0  0  0  0  0  0  0
   19.6401   21.2183   23.0017 H   0  0  0  0  0  0  0  0  0  0  0  0
   19.0902   19.7291   21.4945 C   0  0  0  0  0  0  0  0  0  0  0  0
   18.6556   20.5028   20.8463 H   0  0  0  0  0  0  0  0  0  0  0  0
   18.4151   18.8659   21.4136 H   0  0  0  0  0  0  0  0  0  0  0  0
   20.4889   19.3648   20.9347 C   0  0  0  0  0  0  0  0  0  0  0  0
   20.5124   19.6116   19.8638 H   0  0  0  0  0  0  0  0  0  0  0  0
   21.2635   19.9903   21.3985 H   0  0  0  0  0  0  0  0  0  0  0  0
   20.8295   17.8627   21.0808 C   0  0  0  0  0  0  0  0  0  0  0  0
   20.7591   17.5154   22.1171 H   0  0  0  0  0  0  0  0  0  0  0  0
   20.1420   17.2511   20.4819 H   0  0  0  0  0  0  0  0  0  0  0  0
   21.8477   17.6602   20.7236 H   0  0  0  0  0  0  0  0  0  0  0  0
  1  2  1  0  0  0  0
  1  3  1  0  0  0  0
  1  4  1  0  0  0  0
  1  5  1  0  0  0  0
  5  6  1  0  0  0  0
  5  7  1  0  0  0  0
  5  8  1  0  0  0  0
  8  9  1  0  0  0  0
  8 10  1  0  0  0  0
  8 11  1  0  0  0  0
 11 12  1  0  0  0  0
 11 13  1  0  0  0  0
 11 14  1  0  0  0  0
 14 15  1  0  0  0  0
 14 16  1  0  0  0  0
 14 17  1  0  0  0  0
 17 18  1  0  0  0  0
 17 19  1  0  0  0  0
 17 20  1  0  0  0  0
M  END
> <VConfSearch Rank>
847

> <Conf_Id>
77

> <Delta U+W>
5.366

> <U+W>
-6.412

> <U>
51.542

> <W>
-57.954

> <W(PB)>
-59.811

> <W(SA)>
1.857

> <Valence>
5.347

> <Coulomb>
45.870

> <VdW>
0.325

> <VdW6>
-6.161

> <VdW12>
6.486

> <Bond>
0.201

> <Angle>
1.484

> <Pdih>
3.662

> <Idih>
0.000

> <Tether>
0.000

$$$$
VeraChem MOL file


 20 19  0  0  0  0  0  0  0  0999 V2000     
   20.6509   20.9532   22.5031 N   0  3  0  0  0  0  0  0  0  0  0  0
   20.1844   21.4910   23.2403 H   0  0  0  0  0  0  0  0  0  0  0  0
   21.2356   20.2488   22.9631 H   0  0  0  0  0  0  0  0  0  0  0  0
   21.2786   21.6000   22.0139 H   0  0  0  0  0  0  0  0  0  0  0  0
   19.6535   20.3122   21.5576 C   0  0  0  0  0  0  0  0  0  0  0  0
   20.2024   19.8086   20.7574 H   0  0  0  0  0  0  0  0  0  0  0  0
   19.0705   21.1223   21.1112 H   0  0  0  0  0  0  0  0  0  0  0  0
   18.6928   19.3176   22.2404 C   0  0  0  0  0  0  0  0  0  0  0  0
   18.3530   19.7283   23.2004 H   0  0  0  0  0  0  0  0  0  0  0  0
   17.7938   19.2393   21.6147 H   0  0  0  0  0  0  0  0  0  0  0  0
   19.2564   17.8851   22.4404 C   0  0  0  0  0  0  0  0  0  0  0  0
   19.4693   17.4268   21.4646 H   0  0  0  0  0  0  0  0  0  0  0  0
   18.4553   17.2759   22.8816 H   0  0  0  0  0  0  0  0  0  0  0  0
   20.5000   17.7806   23.3597 C   0  0  0  0  0  0  0  0  0  0  0  0
   20.4930   18.5839   24.1086 H   0  0  0  0  0  0  0  0  0  0  0  0
   20.4350   16.8438   23.9311 H   0  0  0  0  0  0  0  0  0  0  0  0
   21.8346   17.7649   22.5771 C   0  0  0  0  0  0  0  0  0  0  0  0
   22.6878   17.7463   23.2677 H   0  0  0  0  0  0  0  0  0  0  0  0
   21.9013   16.8691   21.9459 H   0  0  0  0  0  0  0  0  0  0  0  0
   21.9475   18.6360   21.9229 H   0  0  0  0  0  0  0  0  0  0  0  0
  1  2  1  0  0  0  0
  1  3  1  0  0  0  0
  1  4  1  0  0  0  0
  1  5  1  0  0  0  0
  5  6  1  0  0  0  0
  5  7  1  0  0  0  0
  5  8  1  0  0  0  0
  8  9  1  0  0  0  0
  8 10  1  0  0  0  0
  8 11  1  0  0  0  0
 11 12  1  0  0  0  0
 11 13  1  0  0  0  0
 11 14  1  0  0  0  0
 14 15  1  0  0  0  0
 14 16  1  0  0  0  0
 14 17  1  0  0  0  0
 17 18  1  0  0  0  0
 17 19  1  0  0  0  0
 17 20  1  0  0  0  0
M  END
> <VConfSearch Rank>
848

> <Conf_Id>
67

> <Delta U+W>
5.353

> <U+W>
-6.425

> <U>
51.541

> <W>
-57.966

> <W(PB)>
-59.821

> <W(SA)>
1.855

> <Valence>
5.347

> <Coulomb>
45.870

> <VdW>
0.325

> <VdW6>
-6.161

> <VdW12>
6.486

> <Bond>
0.201

> <Angle>
1.485

> <Pdih>
3.662

> <Idih>
0.000

> <Tether>
0.000

$$$$
VeraChem MOL file


 20 19  0  0  0  0  0  0  0  0999 V2000     
   18.8496   16.2740   23.1726 N   0  3  0  0  0  0  0  0  0  0  0  0
   19.6762   15.6935   22.9990 H   0  0  0  0  0  0  0  0  0  0  0  0
   18.3481   15.8490   23.9596 H   0  0  0  0  0  0  0  0  0  0  0  0
   18.2424   16.1866   22.3516 H   0  0  0  0  0  0  0  0  0  0  0  0
   19.2189   17.7166   23.4533 C   0  0  0  0  0  0  0  0  0  0  0  0
   19.8382   17.7374   24.3541 H   0  0  0  0  0  0  0  0  0  0  0  0
   18.2969   18.2674   23.6580 H   0  0  0  0  0  0  0  0  0  0  0  0
   19.9740   18.3850   22.2903 C   0  0  0  0  0  0  0  0  0  0  0  0
   20.8911   17.8195   22.0777 H   0  0  0  0  0  0  0  0  0  0  0  0
   19.3550   18.3477   21.3839 H   0  0  0  0  0  0  0  0  0  0  0  0
   20.3313   19.8522   22.6164 C   0  0  0  0  0  0  0  0  0  0  0  0
   20.9462   19.8862   23.5267 H   0  0  0  0  0  0  0  0  0  0  0  0
   19.4120   20.4138   22.8337 H   0  0  0  0  0  0  0  0  0  0  0  0
   21.0900   20.5336   21.4556 C   0  0  0  0  0  0  0  0  0  0  0  0
   22.0115   19.9761   21.2364 H   0  0  0  0  0  0  0  0  0  0  0  0
   20.4775   20.5038   20.5435 H   0  0  0  0  0  0  0  0  0  0  0  0
   21.4450   21.9992   21.7859 C   0  0  0  0  0  0  0  0  0  0  0  0
   22.0864   22.0596   22.6748 H   0  0  0  0  0  0  0  0  0  0  0  0
   21.9829   22.4656   20.9504 H   0  0  0  0  0  0  0  0  0  0  0  0
   20.5404   22.5914   21.9763 H   0  0  0  0  0  0  0  0  0  0  0  0
  1  2  1  0  0  0  0
  1  3  1  0  0  0  0
  1  4  1  0  0  0  0
  1  5  1  0  0  0  0
  5  6  1  0  0  0  0
  5  7  1  0  0  0  0
  5  8  1  0  0  0  0
  8  9  1  0  0  0  0
  8 10  1  0  0  0  0
  8 11  1  0  0  0  0
 11 12  1  0  0  0  0
 11 13  1  0  0  0  0
 11 14  1  0  0  0  0
 14 15  1  0  0  0  0
 14 16  1  0  0  0  0
 14 17  1  0  0  0  0
 17 18  1  0  0  0  0
 17 19  1  0  0  0  0
 17 20  1  0  0  0  0
M  END
> <VConfSearch Rank>
849

> <Conf_Id>
72

> <Delta U+W>
0.000

> <U+W>
-11.778

> <U>
45.772

> <W>
-57.550

> <W(PB)>
-59.511

> <W(SA)>
1.961

> <Valence>
1.299

> <Coulomb>
44.177

> <VdW>
0.297

> <VdW6>
-3.490

> <VdW12>
3.786

> <Bond>
0.096

> <Angle>
0.381

> <Pdih>
0.822

> <Idih>
0.000

> <Tether>
0.000

$$$$
VeraChem MOL file


 20 19  0  0  0  0  0  0  0  0999 V2000     
   21.5655   16.9166   23.8093 N   0  3  0  0  0  0  0  0  0  0  0  0
   20.7118   16.6131   24.2884 H   0  0  0  0  0  0  0  0  0  0  0  0
   21.6746   16.3216   22.9820 H   0  0  0  0  0  0  0  0  0  0  0  0
   22.3494   16.7025   24.4348 H   0  0  0  0  0  0  0  0  0  0  0  0
   21.5197   18.3875   23.4472 C   0  0  0  0  0  0  0  0  0  0  0  0
   22.4688   18.6472   22.9704 H   0  0  0  0  0  0  0  0  0  0  0  0
   21.4332   18.9608   24.3742 H   0  0  0  0  0  0  0  0  0  0  0  0
   20.3537   18.7435   22.5077 C   0  0  0  0  0  0  0  0  0  0  0  0
   20.4356   18.1539   21.5849 H   0  0  0  0  0  0  0  0  0  0  0  0
   19.4082   18.4625   22.9886 H   0  0  0  0  0  0  0  0  0  0  0  0
   20.3473   20.2516   22.1632 C   0  0  0  0  0  0  0  0  0  0  0  0
   21.3286   20.5292   21.7537 H   0  0  0  0  0  0  0  0  0  0  0  0
   20.2188   20.8406   23.0820 H   0  0  0  0  0  0  0  0  0  0  0  0
   19.2564   20.6467   21.1383 C   0  0  0  0  0  0  0  0  0  0  0  0
   19.3890   21.7049   20.8724 H   0  0  0  0  0  0  0  0  0  0  0  0
   19.3956   20.0772   20.2087 H   0  0  0  0  0  0  0  0  0  0  0  0
   17.8168   20.4418   21.6628 C   0  0  0  0  0  0  0  0  0  0  0  0
   17.6601   20.9788   22.6073 H   0  0  0  0  0  0  0  0  0  0  0  0
   17.0859   20.8206   20.9367 H   0  0  0  0  0  0  0  0  0  0  0  0
   17.5951   19.3804   21.8294 H   0  0  0  0  0  0  0  0  0  0  0  0
  1  2  1  0  0  0  0
  1  3  1  0  0  0  0
  1  4  1  0  0  0  0
  1  5  1  0  0  0  0
  5  6  1  0  0  0  0
  5  7  1  0  0  0  0
  5  8  1  0  0  0  0
  8  9  1  0  0  0  0
  8 10  1  0  0  0  0
  8 11  1  0  0  0  0
 11 12  1  0  0  0  0
 11 13  1  0  0  0  0
 11 14  1  0  0  0  0
 14 15  1  0  0  0  0
 14 16  1  0  0  0  0
 14 17  1  0  0  0  0
 17 18  1  0  0  0  0
 17 19  1  0  0  0  0
 17 20  1  0  0  0  0
M  END
> <VConfSearch Rank>
850

> <Conf_Id>
42

> <Delta U+W>
0.508

> <U+W>
-11.270

> <U>
46.486

> <W>
-57.756

> <W(PB)>
-59.705

> <W(SA)>
1.949

> <Valence>
1.806

> <Coulomb>
44.248

> <VdW>
0.433

> <VdW6>
-4.089

> <VdW12>
4.522

> <Bond>
0.131

> <Angle>
0.628

> <Pdih>
1.047

> <Idih>
0.000

> <Tether>
0.000

$$$$
VeraChem MOL file


 20 19  0  0  0  0  0  0  0  0999 V2000     
   20.4649   21.7497   21.1864 N   0  3  0  0  0  0  0  0  0  0  0  0
   21.3670   21.5791   20.7309 H   0  0  0  0  0  0  0  0  0  0  0  0
   19.7351   21.5300   20.5012 H   0  0  0  0  0  0  0  0  0  0  0  0
   20.4092   22.7576   21.3671 H   0  0  0  0  0  0  0  0  0  0  0  0
   20.3104   20.9403   22.4582 C   0  0  0  0  0  0  0  0  0  0  0  0
   19.3445   21.1932   22.9040 H   0  0  0  0  0  0  0  0  0  0  0  0
   21.0988   21.2467   23.1510 H   0  0  0  0  0  0  0  0  0  0  0  0
   20.3898   19.4213   22.2224 C   0  0  0  0  0  0  0  0  0  0  0  0
   19.6060   19.1281   21.5126 H   0  0  0  0  0  0  0  0  0  0  0  0
   21.3547   19.1739   21.7602 H   0  0  0  0  0  0  0  0  0  0  0  0
   20.2296   18.6361   23.5456 C   0  0  0  0  0  0  0  0  0  0  0  0
   19.2449   18.8481   23.9850 H   0  0  0  0  0  0  0  0  0  0  0  0
   20.9742   18.9977   24.2685 H   0  0  0  0  0  0  0  0  0  0  0  0
   20.4048   17.1067   23.3816 C   0  0  0  0  0  0  0  0  0  0  0  0
   21.3980   16.8887   22.9646 H   0  0  0  0  0  0  0  0  0  0  0  0
   20.3808   16.6403   24.3765 H   0  0  0  0  0  0  0  0  0  0  0  0
   19.3161   16.4541   22.4994 C   0  0  0  0  0  0  0  0  0  0  0  0
   19.3774   16.8003   21.4603 H   0  0  0  0  0  0  0  0  0  0  0  0
   19.4324   15.3627   22.4902 H   0  0  0  0  0  0  0  0  0  0  0  0
   18.3114   16.6808   22.8792 H   0  0  0  0  0  0  0  0  0  0  0  0
  1  2  1  0  0  0  0
  1  3  1  0  0  0  0
  1  4  1  0  0  0  0
  1  5  1  0  0  0  0
  5  6  1  0  0  0  0
  5  7  1  0  0  0  0
  5  8  1  0  0  0  0
  8  9  1  0  0  0  0
  8 10  1  0  0  0  0
  8 11  1  0  0  0  0
 11 12  1  0  0  0  0
 11 13  1  0  0  0  0
 11 14  1  0  0  0  0
 14 15  1  0  0  0  0
 14 16  1  0  0  0  0
 14 17  1  0  0  0  0
 17 18  1  0  0  0  0
 17 19  1  0  0  0  0
 17 20  1  0  0  0  0
M  END
> <VConfSearch Rank>
851

> <Conf_Id>
41

> <Delta U+W>
0.515

> <U+W>
-11.263

> <U>
46.486

> <W>
-57.749

> <W(PB)>
-59.685

> <W(SA)>
1.936

> <Valence>
1.806

> <Coulomb>
44.248

> <VdW>
0.433

> <VdW6>
-4.089

> <VdW12>
4.522

> <Bond>
0.131

> <Angle>
0.628

> <Pdih>
1.047

> <Idih>
0.000

> <Tether>
0.000

$$$$
VeraChem MOL file


 20 19  0  0  0  0  0  0  0  0999 V2000     
   21.7901   17.1218   21.4989 N   0  3  0  0  0  0  0  0  0  0  0  0
   22.6767   16.6067   21.4925 H   0  0  0  0  0  0  0  0  0  0  0  0
   21.1528   16.6106   22.1166 H   0  0  0  0  0  0  0  0  0  0  0  0
   21.4050   17.0634   20.5510 H   0  0  0  0  0  0  0  0  0  0  0  0
   21.9778   18.5592   21.9447 C   0  0  0  0  0  0  0  0  0  0  0  0
   22.6998   19.0236   21.2675 H   0  0  0  0  0  0  0  0  0  0  0  0
   22.4109   18.5501   22.9486 H   0  0  0  0  0  0  0  0  0  0  0  0
   20.6776   19.3871   21.9484 C   0  0  0  0  0  0  0  0  0  0  0  0
   20.9406   20.4292   22.1683 H   0  0  0  0  0  0  0  0  0  0  0  0
   20.2358   19.3799   20.9431 H   0  0  0  0  0  0  0  0  0  0  0  0
   19.6461   18.8771   22.9862 C   0  0  0  0  0  0  0  0  0  0  0  0
   20.0873   18.9086   23.9921 H   0  0  0  0  0  0  0  0  0  0  0  0
   19.4142   17.8231   22.7835 H   0  0  0  0  0  0  0  0  0  0  0  0
   18.3187   19.6738   22.9789 C   0  0  0  0  0  0  0  0  0  0  0  0
   17.8664   19.6338   21.9781 H   0  0  0  0  0  0  0  0  0  0  0  0
   17.6080   19.1799   23.6564 H   0  0  0  0  0  0  0  0  0  0  0  0
   18.4811   21.1471   23.4180 C   0  0  0  0  0  0  0  0  0  0  0  0
   19.0841   21.7183   22.7015 H   0  0  0  0  0  0  0  0  0  0  0  0
   17.5013   21.6371   23.4874 H   0  0  0  0  0  0  0  0  0  0  0  0
   18.9603   21.2154   24.4032 H   0  0  0  0  0  0  0  0  0  0  0  0
  1  2  1  0  0  0  0
  1  3  1  0  0  0  0
  1  4  1  0  0  0  0
  1  5  1  0  0  0  0
  5  6  1  0  0  0  0
  5  7  1  0  0  0  0
  5  8  1  0  0  0  0
  8  9  1  0  0  0  0
  8 10  1  0  0  0  0
  8 11  1  0  0  0  0
 11 12  1  0  0  0  0
 11 13  1  0  0  0  0
 11 14  1  0  0  0  0
 14 15  1  0  0  0  0
 14 16  1  0  0  0  0
 14 17  1  0  0  0  0
 17 18  1  0  0  0  0
 17 19  1  0  0  0  0
 17 20  1  0  0  0  0
M  END
> <VConfSearch Rank>
852

> <Conf_Id>
33

> <Delta U+W>
0.703

> <U+W>
-11.075

> <U>
47.080

> <W>
-58.154

> <W(PB)>
-60.053

> <W(SA)>
1.899

> <Valence>
1.943

> <Coulomb>
44.572

> <VdW>
0.565

> <VdW6>
-4.575

> <VdW12>
5.139

> <Bond>
0.158

> <Angle>
0.700

> <Pdih>
1.085

> <Idih>
0.000

> <Tether>
0.000

$$$$
VeraChem MOL file


 20 19  0  0  0  0  0  0  0  0999 V2000     
   18.8216   16.8402   23.2833 N   0  3  0  0  0  0  0  0  0  0  0  0
   17.9942   16.2348   23.3024 H   0  0  0  0  0  0  0  0  0  0  0  0
   19.6385   16.2315   23.3940 H   0  0  0  0  0  0  0  0  0  0  0  0
   18.7737   17.4367   24.1145 H   0  0  0  0  0  0  0  0  0  0  0  0
   18.8933   17.6550   22.0062 C   0  0  0  0  0  0  0  0  0  0  0  0
   17.9860   18.2614   21.9383 H   0  0  0  0  0  0  0  0  0  0  0  0
   18.8969   16.9542   21.1669 H   0  0  0  0  0  0  0  0  0  0  0  0
   20.1336   18.5655   21.9147 C   0  0  0  0  0  0  0  0  0  0  0  0
   21.0428   17.9558   22.0006 H   0  0  0  0  0  0  0  0  0  0  0  0
   20.1504   19.0150   20.9141 H   0  0  0  0  0  0  0  0  0  0  0  0
   20.1378   19.6811   22.9901 C   0  0  0  0  0  0  0  0  0  0  0  0
   20.0842   19.2268   23.9883 H   0  0  0  0  0  0  0  0  0  0  0  0
   19.2365   20.3007   22.8836 H   0  0  0  0  0  0  0  0  0  0  0  0
   21.3946   20.5838   22.9372 C   0  0  0  0  0  0  0  0  0  0  0  0
   21.3727   21.2684   23.7966 H   0  0  0  0  0  0  0  0  0  0  0  0
   22.2985   19.9702   23.0569 H   0  0  0  0  0  0  0  0  0  0  0  0
   21.5003   21.4183   21.6402 C   0  0  0  0  0  0  0  0  0  0  0  0
   20.5945   22.0176   21.4808 H   0  0  0  0  0  0  0  0  0  0  0  0
   22.3526   22.1079   21.6960 H   0  0  0  0  0  0  0  0  0  0  0  0
   21.6507   20.7807   20.7604 H   0  0  0  0  0  0  0  0  0  0  0  0
  1  2  1  0  0  0  0
  1  3  1  0  0  0  0
  1  4  1  0  0  0  0
  1  5  1  0  0  0  0
  5  6  1  0  0  0  0
  5  7  1  0  0  0  0
  5  8  1  0  0  0  0
  8  9  1  0  0  0  0
  8 10  1  0  0  0  0
  8 11  1  0  0  0  0
 11 12  1  0  0  0  0
 11 13  1  0  0  0  0
 11 14  1  0  0  0  0
 14 15  1  0  0  0  0
 14 16  1  0  0  0  0
 14 17  1  0  0  0  0
 17 18  1  0  0  0  0
 17 19  1  0  0  0  0
 17 20  1  0  0  0  0
M  END
> <VConfSearch Rank>
853

> <Conf_Id>
24

> <Delta U+W>
0.847

> <U+W>
-10.931

> <U>
47.080

> <W>
-58.011

> <W(PB)>
-59.914

> <W(SA)>
1.903

> <Valence>
1.943

> <Coulomb>
44.572

> <VdW>
0.565

> <VdW6>
-4.575

> <VdW12>
5.140

> <Bond>
0.158

> <Angle>
0.700

> <Pdih>
1.085

> <Idih>
0.000

> <Tether>
0.000

$$$$
VeraChem MOL file


 20 19  0  0  0  0  0  0  0  0999 V2000     
   20.4618   20.3581   20.0189 N   0  3  0  0  0  0  0  0  0  0  0  0
   20.2863   21.3354   19.7625 H   0  0  0  0  0  0  0  0  0  0  0  0
   21.4788   20.2425   20.0710 H   0  0  0  0  0  0  0  0  0  0  0  0
   20.1329   19.7825   19.2374 H   0  0  0  0  0  0  0  0  0  0  0  0
   19.7818   19.9867   21.3211 C   0  0  0  0  0  0  0  0  0  0  0  0
   18.7089   20.1611   21.2040 H   0  0  0  0  0  0  0  0  0  0  0  0
   20.1565   20.6574   22.0988 H   0  0  0  0  0  0  0  0  0  0  0  0
   20.0264   18.5235   21.7358 C   0  0  0  0  0  0  0  0  0  0  0  0
   19.6847   17.8602   20.9302 H   0  0  0  0  0  0  0  0  0  0  0  0
   21.1038   18.3449   21.8448 H   0  0  0  0  0  0  0  0  0  0  0  0
   19.2908   18.1402   23.0442 C   0  0  0  0  0  0  0  0  0  0  0  0
   19.4980   17.0859   23.2736 H   0  0  0  0  0  0  0  0  0  0  0  0
   18.2068   18.2052   22.8759 H   0  0  0  0  0  0  0  0  0  0  0  0
   19.6571   19.0083   24.2752 C   0  0  0  0  0  0  0  0  0  0  0  0
   19.3594   20.0521   24.1059 H   0  0  0  0  0  0  0  0  0  0  0  0
   19.0669   18.6628   25.1355 H   0  0  0  0  0  0  0  0  0  0  0  0
   21.1568   18.9490   24.6446 C   0  0  0  0  0  0  0  0  0  0  0  0
   21.3462   19.5027   25.5732 H   0  0  0  0  0  0  0  0  0  0  0  0
   21.4848   17.9129   24.7990 H   0  0  0  0  0  0  0  0  0  0  0  0
   21.7825   19.3951   23.8615 H   0  0  0  0  0  0  0  0  0  0  0  0
  1  2  1  0  0  0  0
  1  3  1  0  0  0  0
  1  4  1  0  0  0  0
  1  5  1  0  0  0  0
  5  6  1  0  0  0  0
  5  7  1  0  0  0  0
  5  8  1  0  0  0  0
  8  9  1  0  0  0  0
  8 10  1  0  0  0  0
  8 11  1  0  0  0  0
 11 12  1  0  0  0  0
 11 13  1  0  0  0  0
 11 14  1  0  0  0  0
 14 15  1  0  0  0  0
 14 16  1  0  0  0  0
 14 17  1  0  0  0  0
 17 18  1  0  0  0  0
 17 19  1  0  0  0  0
 17 20  1  0  0  0  0
M  END
> <VConfSearch Rank>
854

> <Conf_Id>
64

> <Delta U+W>
0.707

> <U+W>
-11.070

> <U>
47.077

> <W>
-58.148

> <W(PB)>
-60.054

> <W(SA)>
1.906

> <Valence>
2.039

> <Coulomb>
44.655

> <VdW>
0.383

> <VdW6>
-4.912

> <VdW12>
5.295

> <Bond>
0.159

> <Angle>
0.856

> <Pdih>
1.024

> <Idih>
0.000

> <Tether>
0.000

$$$$
VeraChem MOL file


 20 19  0  0  0  0  0  0  0  0999 V2000     
   20.7104   16.6336   23.6647 N   0  3  0  0  0  0  0  0  0  0  0  0
   20.5215   15.8253   23.0636 H   0  0  0  0  0  0  0  0  0  0  0  0
   21.7210   16.8015   23.6349 H   0  0  0  0  0  0  0  0  0  0  0  0
   20.4842   16.3499   24.6238 H   0  0  0  0  0  0  0  0  0  0  0  0
   19.9205   17.8540   23.2372 C   0  0  0  0  0  0  0  0  0  0  0  0
   20.1472   18.6628   23.9368 H   0  0  0  0  0  0  0  0  0  0  0  0
   18.8569   17.6147   23.3209 H   0  0  0  0  0  0  0  0  0  0  0  0
   20.2376   18.3072   21.7996 C   0  0  0  0  0  0  0  0  0  0  0  0
   21.3068   18.5389   21.7120 H   0  0  0  0  0  0  0  0  0  0  0  0
   20.0459   17.4743   21.1101 H   0  0  0  0  0  0  0  0  0  0  0  0
   19.3929   19.5275   21.3556 C   0  0  0  0  0  0  0  0  0  0  0  0
   18.3334   19.2372   21.3293 H   0  0  0  0  0  0  0  0  0  0  0  0
   19.6600   19.7887   20.3223 H   0  0  0  0  0  0  0  0  0  0  0  0
   19.5435   20.7840   22.2511 C   0  0  0  0  0  0  0  0  0  0  0  0
   18.8905   21.5752   21.8570 H   0  0  0  0  0  0  0  0  0  0  0  0
   19.1808   20.5724   23.2662 H   0  0  0  0  0  0  0  0  0  0  0  0
   20.9914   21.3210   22.3179 C   0  0  0  0  0  0  0  0  0  0  0  0
   21.3851   21.5211   21.3130 H   0  0  0  0  0  0  0  0  0  0  0  0
   21.0273   22.2599   22.8854 H   0  0  0  0  0  0  0  0  0  0  0  0
   21.6623   20.6094   22.8152 H   0  0  0  0  0  0  0  0  0  0  0  0
  1  2  1  0  0  0  0
  1  3  1  0  0  0  0
  1  4  1  0  0  0  0
  1  5  1  0  0  0  0
  5  6  1  0  0  0  0
  5  7  1  0  0  0  0
  5  8  1  0  0  0  0
  8  9  1  0  0  0  0
  8 10  1  0  0  0  0
  8 11  1  0  0  0  0
 11 12  1  0  0  0  0
 11 13  1  0  0  0  0
 11 14  1  0  0  0  0
 14 15  1  0  0  0  0
 14 16  1  0  0  0  0
 14 17  1  0  0  0  0
 17 18  1  0  0  0  0
 17 19  1  0  0  0  0
 17 20  1  0  0  0  0
M  END
> <VConfSearch Rank>
855

> <Conf_Id>
22

> <Delta U+W>
0.731

> <U+W>
-11.047

> <U>
47.078

> <W>
-58.125

> <W(PB)>
-60.031

> <W(SA)>
1.906

> <Valence>
2.039

> <Coulomb>
44.655

> <VdW>
0.383

> <VdW6>
-4.913

> <VdW12>
5.296

> <Bond>
0.159

> <Angle>
0.856

> <Pdih>
1.024

> <Idih>
0.000

> <Tether>
0.000

$$$$
VeraChem MOL file


 20 19  0  0  0  0  0  0  0  0999 V2000     
   18.7946   16.9944   23.3801 N   0  3  0  0  0  0  0  0  0  0  0  0
   17.9287   17.4119   23.7356 H   0  0  0  0  0  0  0  0  0  0  0  0
   18.5323   16.3579   22.6209 H   0  0  0  0  0  0  0  0  0  0  0  0
   19.1771   16.4150   24.1347 H   0  0  0  0  0  0  0  0  0  0  0  0
   19.7838   18.0467   22.9209 C   0  0  0  0  0  0  0  0  0  0  0  0
   20.6889   17.5353   22.5822 H   0  0  0  0  0  0  0  0  0  0  0  0
   20.0363   18.6643   23.7858 H   0  0  0  0  0  0  0  0  0  0  0  0
   19.2371   18.9376   21.7913 C   0  0  0  0  0  0  0  0  0  0  0  0
   18.8767   18.2945   20.9774 H   0  0  0  0  0  0  0  0  0  0  0  0
   18.3640   19.4951   22.1555 H   0  0  0  0  0  0  0  0  0  0  0  0
   20.2800   19.9259   21.2101 C   0  0  0  0  0  0  0  0  0  0  0  0
   19.8100   20.4386   20.3593 H   0  0  0  0  0  0  0  0  0  0  0  0
   21.1320   19.3739   20.7898 H   0  0  0  0  0  0  0  0  0  0  0  0
   20.7799   21.0068   22.2036 C   0  0  0  0  0  0  0  0  0  0  0  0
   21.0689   21.8972   21.6276 H   0  0  0  0  0  0  0  0  0  0  0  0
   19.9608   21.3270   22.8627 H   0  0  0  0  0  0  0  0  0  0  0  0
   22.0037   20.5693   23.0425 C   0  0  0  0  0  0  0  0  0  0  0  0
   21.7703   19.7384   23.7164 H   0  0  0  0  0  0  0  0  0  0  0  0
   22.8345   20.2600   22.3952 H   0  0  0  0  0  0  0  0  0  0  0  0
   22.3590   21.4027   23.6623 H   0  0  0  0  0  0  0  0  0  0  0  0
  1  2  1  0  0  0  0
  1  3  1  0  0  0  0
  1  4  1  0  0  0  0
  1  5  1  0  0  0  0
  5  6  1  0  0  0  0
  5  7  1  0  0  0  0
  5  8  1  0  0  0  0
  8  9  1  0  0  0  0
  8 10  1  0  0  0  0
  8 11  1  0  0  0  0
 11 12  1  0  0  0  0
 11 13  1  0  0  0  0
 11 14  1  0  0  0  0
 14 15  1  0  0  0  0
 14 16  1  0  0  0  0
 14 17  1  0  0  0  0
 17 18  1  0  0  0  0
 17 19  1  0  0  0  0
 17 20  1  0  0  0  0
M  END
> <VConfSearch Rank>
856

> <Conf_Id>
61

> <Delta U+W>
2.669

> <U+W>
-9.108

> <U>
48.916

> <W>
-58.025

> <W(PB)>
-59.935

> <W(SA)>
1.911

> <Valence>
3.785

> <Coulomb>
44.716

> <VdW>
0.415

> <VdW6>
-4.836

> <VdW12>
5.251

> <Bond>
0.175

> <Angle>
1.195

> <Pdih>
2.415

> <Idih>
0.000

> <Tether>
0.000

$$$$
VeraChem MOL file


 20 19  0  0  0  0  0  0  0  0999 V2000     
   18.5383   18.7485   20.8046 N   0  3  0  0  0  0  0  0  0  0  0  0
   18.3718   18.6709   19.7957 H   0  0  0  0  0  0  0  0  0  0  0  0
   17.6188   18.7565   21.2571 H   0  0  0  0  0  0  0  0  0  0  0  0
   18.9640   19.6643   20.9694 H   0  0  0  0  0  0  0  0  0  0  0  0
   19.4085   17.6177   21.3189 C   0  0  0  0  0  0  0  0  0  0  0  0
   20.3501   17.6217   20.7631 H   0  0  0  0  0  0  0  0  0  0  0  0
   18.8856   16.6850   21.0906 H   0  0  0  0  0  0  0  0  0  0  0  0
   19.6945   17.6734   22.8344 C   0  0  0  0  0  0  0  0  0  0  0  0
   18.7800   17.9406   23.3805 H   0  0  0  0  0  0  0  0  0  0  0  0
   19.9546   16.6582   23.1623 H   0  0  0  0  0  0  0  0  0  0  0  0
   20.8589   18.6147   23.2367 C   0  0  0  0  0  0  0  0  0  0  0  0
   21.7789   18.2977   22.7263 H   0  0  0  0  0  0  0  0  0  0  0  0
   21.0464   18.4860   24.3117 H   0  0  0  0  0  0  0  0  0  0  0  0
   20.6007   20.1127   22.9509 C   0  0  0  0  0  0  0  0  0  0  0  0
   20.5603   20.2876   21.8684 H   0  0  0  0  0  0  0  0  0  0  0  0
   19.6282   20.4106   23.3675 H   0  0  0  0  0  0  0  0  0  0  0  0
   21.7077   21.0051   23.5518 C   0  0  0  0  0  0  0  0  0  0  0  0
   21.5150   22.0632   23.3321 H   0  0  0  0  0  0  0  0  0  0  0  0
   21.7583   20.8924   24.6426 H   0  0  0  0  0  0  0  0  0  0  0  0
   22.6908   20.7485   23.1358 H   0  0  0  0  0  0  0  0  0  0  0  0
  1  2  1  0  0  0  0
  1  3  1  0  0  0  0
  1  4  1  0  0  0  0
  1  5  1  0  0  0  0
  5  6  1  0  0  0  0
  5  7  1  0  0  0  0
  5  8  1  0  0  0  0
  8  9  1  0  0  0  0
  8 10  1  0  0  0  0
  8 11  1  0  0  0  0
 11 12  1  0  0  0  0
 11 13  1  0  0  0  0
 11 14  1  0  0  0  0
 14 15  1  0  0  0  0
 14 16  1  0  0  0  0
 14 17  1  0  0  0  0
 17 18  1  0  0  0  0
 17 19  1  0  0  0  0
 17 20  1  0  0  0  0
M  END
> <VConfSearch Rank>
857

> <Conf_Id>
69

> <Delta U+W>
2.811

> <U+W>
-8.967

> <U>
49.216

> <W>
-58.183

> <W(PB)>
-60.064

> <W(SA)>
1.881

> <Valence>
2.929

> <Coulomb>
46.006

> <VdW>
0.281

> <VdW6>
-4.909

> <VdW12>
5.190

> <Bond>
0.156

> <Angle>
0.974

> <Pdih>
1.799

> <Idih>
0.000

> <Tether>
0.000

$$$$
VeraChem MOL file


 20 19  0  0  0  0  0  0  0  0999 V2000     
   18.3743   18.5187   21.0333 N   0  3  0  0  0  0  0  0  0  0  0  0
   18.2109   18.6977   22.0274 H   0  0  0  0  0  0  0  0  0  0  0  0
   18.0492   19.3439   20.5198 H   0  0  0  0  0  0  0  0  0  0  0  0
   17.7629   17.7411   20.7628 H   0  0  0  0  0  0  0  0  0  0  0  0
   19.8317   18.2142   20.7438 C   0  0  0  0  0  0  0  0  0  0  0  0
   19.9098   18.0252   19.6697 H   0  0  0  0  0  0  0  0  0  0  0  0
   20.1071   17.2958   21.2692 H   0  0  0  0  0  0  0  0  0  0  0  0
   20.8066   19.3482   21.1248 C   0  0  0  0  0  0  0  0  0  0  0  0
   21.7196   19.2174   20.5289 H   0  0  0  0  0  0  0  0  0  0  0  0
   20.3896   20.3193   20.8265 H   0  0  0  0  0  0  0  0  0  0  0  0
   21.2154   19.3719   22.6202 C   0  0  0  0  0  0  0  0  0  0  0  0
   21.9923   20.1380   22.7498 H   0  0  0  0  0  0  0  0  0  0  0  0
   21.6836   18.4142   22.8869 H   0  0  0  0  0  0  0  0  0  0  0  0
   20.0542   19.6681   23.5980 C   0  0  0  0  0  0  0  0  0  0  0  0
   19.5131   20.5683   23.2741 H   0  0  0  0  0  0  0  0  0  0  0  0
   19.3381   18.8368   23.5943 H   0  0  0  0  0  0  0  0  0  0  0  0
   20.5639   19.8711   25.0409 C   0  0  0  0  0  0  0  0  0  0  0  0
   21.2559   20.7213   25.1002 H   0  0  0  0  0  0  0  0  0  0  0  0
   19.7275   20.0706   25.7233 H   0  0  0  0  0  0  0  0  0  0  0  0
   21.0886   18.9775   25.4036 H   0  0  0  0  0  0  0  0  0  0  0  0
  1  2  1  0  0  0  0
  1  3  1  0  0  0  0
  1  4  1  0  0  0  0
  1  5  1  0  0  0  0
  5  6  1  0  0  0  0
  5  7  1  0  0  0  0
  5  8  1  0  0  0  0
  8  9  1  0  0  0  0
  8 10  1  0  0  0  0
  8 11  1  0  0  0  0
 11 12  1  0  0  0  0
 11 13  1  0  0  0  0
 11 14  1  0  0  0  0
 14 15  1  0  0  0  0
 14 16  1  0  0  0  0
 14 17  1  0  0  0  0
 17 18  1  0  0  0  0
 17 19  1  0  0  0  0
 17 20  1  0  0  0  0
M  END
> <VConfSearch Rank>
858

> <Conf_Id>
26

> <Delta U+W>
2.809

> <U+W>
-8.969

> <U>
49.216

> <W>
-58.185

> <W(PB)>
-60.088

> <W(SA)>
1.903

> <Valence>
2.929

> <Coulomb>
46.006

> <VdW>
0.281

> <VdW6>
-4.909

> <VdW12>
5.190

> <Bond>
0.156

> <Angle>
0.974

> <Pdih>
1.799

> <Idih>
0.000

> <Tether>
0.000

$$$$
VeraChem MOL file


 20 19  0  0  0  0  0  0  0  0999 V2000     
   22.3183   20.1645   22.1714 N   0  3  0  0  0  0  0  0  0  0  0  0
   21.7450   20.8448   22.6787 H   0  0  0  0  0  0  0  0  0  0  0  0
   23.0600   19.8584   22.8087 H   0  0  0  0  0  0  0  0  0  0  0  0
   22.7740   20.6684   21.4034 H   0  0  0  0  0  0  0  0  0  0  0  0
   21.4908   18.9981   21.6678 C   0  0  0  0  0  0  0  0  0  0  0  0
   22.1571   18.3320   21.1129 H   0  0  0  0  0  0  0  0  0  0  0  0
   20.7434   19.3871   20.9713 H   0  0  0  0  0  0  0  0  0  0  0  0
   20.7918   18.2040   22.7899 C   0  0  0  0  0  0  0  0  0  0  0  0
   20.2820   17.3391   22.3466 H   0  0  0  0  0  0  0  0  0  0  0  0
   21.5528   17.7895   23.4643 H   0  0  0  0  0  0  0  0  0  0  0  0
   19.7781   19.0389   23.6159 C   0  0  0  0  0  0  0  0  0  0  0  0
   20.3188   19.8050   24.1878 H   0  0  0  0  0  0  0  0  0  0  0  0
   19.3091   18.3857   24.3646 H   0  0  0  0  0  0  0  0  0  0  0  0
   18.6682   19.7265   22.7802 C   0  0  0  0  0  0  0  0  0  0  0  0
   18.0250   20.3038   23.4591 H   0  0  0  0  0  0  0  0  0  0  0  0
   19.1098   20.4572   22.0892 H   0  0  0  0  0  0  0  0  0  0  0  0
   17.7899   18.7300   21.9899 C   0  0  0  0  0  0  0  0  0  0  0  0
   17.3491   17.9775   22.6566 H   0  0  0  0  0  0  0  0  0  0  0  0
   16.9677   19.2564   21.4881 H   0  0  0  0  0  0  0  0  0  0  0  0
   18.3681   18.2085   21.2171 H   0  0  0  0  0  0  0  0  0  0  0  0
  1  2  1  0  0  0  0
  1  3  1  0  0  0  0
  1  4  1  0  0  0  0
  1  5  1  0  0  0  0
  5  6  1  0  0  0  0
  5  7  1  0  0  0  0
  5  8  1  0  0  0  0
  8  9  1  0  0  0  0
  8 10  1  0  0  0  0
  8 11  1  0  0  0  0
 11 12  1  0  0  0  0
 11 13  1  0  0  0  0
 11 14  1  0  0  0  0
 14 15  1  0  0  0  0
 14 16  1  0  0  0  0
 14 17  1  0  0  0  0
 17 18  1  0  0  0  0
 17 19  1  0  0  0  0
 17 20  1  0  0  0  0
M  END
> <VConfSearch Rank>
859

> <Conf_Id>
2

> <Delta U+W>
0.994

> <U+W>
-10.784

> <U>
47.562

> <W>
-58.346

> <W(PB)>
-60.221

> <W(SA)>
1.875

> <Valence>
2.149

> <Coulomb>
45.034

> <VdW>
0.378

> <VdW6>
-5.599

> <VdW12>
5.977

> <Bond>
0.185

> <Angle>
0.935

> <Pdih>
1.028

> <Idih>
0.000

> <Tether>
0.000

$$$$
VeraChem MOL file


 20 19  0  0  0  0  0  0  0  0999 V2000     
   19.2376   17.0568   23.4002 N   0  3  0  0  0  0  0  0  0  0  0  0
   18.2837   16.8079   23.1207 H   0  0  0  0  0  0  0  0  0  0  0  0
   19.8597   16.7762   22.6365 H   0  0  0  0  0  0  0  0  0  0  0  0
   19.4732   16.4733   24.2098 H   0  0  0  0  0  0  0  0  0  0  0  0
   19.3657   18.5347   23.7139 C   0  0  0  0  0  0  0  0  0  0  0  0
   20.3928   18.7262   24.0354 H   0  0  0  0  0  0  0  0  0  0  0  0
   18.7009   18.7557   24.5534 H   0  0  0  0  0  0  0  0  0  0  0  0
   19.0129   19.4531   22.5263 C   0  0  0  0  0  0  0  0  0  0  0  0
   17.9695   19.2769   22.2335 H   0  0  0  0  0  0  0  0  0  0  0  0
   19.0575   20.4973   22.8612 H   0  0  0  0  0  0  0  0  0  0  0  0
   19.9293   19.2636   21.2889 C   0  0  0  0  0  0  0  0  0  0  0  0
   19.6257   19.9782   20.5115 H   0  0  0  0  0  0  0  0  0  0  0  0
   19.7583   18.2675   20.8591 H   0  0  0  0  0  0  0  0  0  0  0  0
   21.4442   19.4362   21.5689 C   0  0  0  0  0  0  0  0  0  0  0  0
   21.7909   18.6678   22.2730 H   0  0  0  0  0  0  0  0  0  0  0  0
   21.9958   19.2601   20.6348 H   0  0  0  0  0  0  0  0  0  0  0  0
   21.8122   20.8374   22.1075 C   0  0  0  0  0  0  0  0  0  0  0  0
   21.3748   21.0160   23.0976 H   0  0  0  0  0  0  0  0  0  0  0  0
   22.9009   20.9383   22.2046 H   0  0  0  0  0  0  0  0  0  0  0  0
   21.4615   21.6258   21.4289 H   0  0  0  0  0  0  0  0  0  0  0  0
  1  2  1  0  0  0  0
  1  3  1  0  0  0  0
  1  4  1  0  0  0  0
  1  5  1  0  0  0  0
  5  6  1  0  0  0  0
  5  7  1  0  0  0  0
  5  8  1  0  0  0  0
  8  9  1  0  0  0  0
  8 10  1  0  0  0  0
  8 11  1  0  0  0  0
 11 12  1  0  0  0  0
 11 13  1  0  0  0  0
 11 14  1  0  0  0  0
 14 15  1  0  0  0  0
 14 16  1  0  0  0  0
 14 17  1  0  0  0  0
 17 18  1  0  0  0  0
 17 19  1  0  0  0  0
 17 20  1  0  0  0  0
M  END
> <VConfSearch Rank>
860

> <Conf_Id>
1

> <Delta U+W>
1.032

> <U+W>
-10.746

> <U>
47.562

> <W>
-58.308

> <W(PB)>
-60.184

> <W(SA)>
1.877

> <Valence>
2.149

> <Coulomb>
45.035

> <VdW>
0.378

> <VdW6>
-5.599

> <VdW12>
5.978

> <Bond>
0.185

> <Angle>
0.935

> <Pdih>
1.028

> <Idih>
0.000

> <Tether>
0.000

$$$$
VeraChem MOL file


 20 19  0  0  0  0  0  0  0  0999 V2000     
   20.7253   16.8360   22.3851 N   0  3  0  0  0  0  0  0  0  0  0  0
   19.9569   16.1721   22.2475 H   0  0  0  0  0  0  0  0  0  0  0  0
   20.9369   17.2478   21.4717 H   0  0  0  0  0  0  0  0  0  0  0  0
   21.5460   16.2883   22.6640 H   0  0  0  0  0  0  0  0  0  0  0  0
   20.3788   17.8948   23.4141 C   0  0  0  0  0  0  0  0  0  0  0  0
   21.2470   18.5450   23.5328 H   0  0  0  0  0  0  0  0  0  0  0  0
   20.2087   17.3843   24.3659 H   0  0  0  0  0  0  0  0  0  0  0  0
   19.1291   18.7270   23.0560 C   0  0  0  0  0  0  0  0  0  0  0  0
   18.2834   18.0369   22.9360 H   0  0  0  0  0  0  0  0  0  0  0  0
   18.8694   19.3757   23.9030 H   0  0  0  0  0  0  0  0  0  0  0  0
   19.2654   19.5825   21.7677 C   0  0  0  0  0  0  0  0  0  0  0  0
   18.2540   19.7790   21.3858 H   0  0  0  0  0  0  0  0  0  0  0  0
   19.7708   19.0137   20.9766 H   0  0  0  0  0  0  0  0  0  0  0  0
   19.9617   20.9543   21.9610 C   0  0  0  0  0  0  0  0  0  0  0  0
   19.9154   21.5012   21.0087 H   0  0  0  0  0  0  0  0  0  0  0  0
   19.3963   21.5584   22.6843 H   0  0  0  0  0  0  0  0  0  0  0  0
   21.4384   20.8692   22.4060 C   0  0  0  0  0  0  0  0  0  0  0  0
   22.0080   20.1801   21.7692 H   0  0  0  0  0  0  0  0  0  0  0  0
   21.9143   21.8562   22.3409 H   0  0  0  0  0  0  0  0  0  0  0  0
   21.5233   20.5383   23.4478 H   0  0  0  0  0  0  0  0  0  0  0  0
  1  2  1  0  0  0  0
  1  3  1  0  0  0  0
  1  4  1  0  0  0  0
  1  5  1  0  0  0  0
  5  6  1  0  0  0  0
  5  7  1  0  0  0  0
  5  8  1  0  0  0  0
  8  9  1  0  0  0  0
  8 10  1  0  0  0  0
  8 11  1  0  0  0  0
 11 12  1  0  0  0  0
 11 13  1  0  0  0  0
 11 14  1  0  0  0  0
 14 15  1  0  0  0  0
 14 16  1  0  0  0  0
 14 17  1  0  0  0  0
 17 18  1  0  0  0  0
 17 19  1  0  0  0  0
 17 20  1  0  0  0  0
M  END
> <VConfSearch Rank>
861

> <Conf_Id>
80

> <Delta U+W>
2.920

> <U+W>
-8.857

> <U>
49.434

> <W>
-58.292

> <W(PB)>
-60.170

> <W(SA)>
1.879

> <Valence>
3.798

> <Coulomb>
45.253

> <VdW>
0.384

> <VdW6>
-5.595

> <VdW12>
5.979

> <Bond>
0.198

> <Angle>
1.368

> <Pdih>
2.231

> <Idih>
0.000

> <Tether>
0.000

$$$$
VeraChem MOL file


 20 19  0  0  0  0  0  0  0  0999 V2000     
   18.3766   19.0441   23.9388 N   0  3  0  0  0  0  0  0  0  0  0  0
   18.0756   18.1170   24.2550 H   0  0  0  0  0  0  0  0  0  0  0  0
   17.9015   19.7307   24.5339 H   0  0  0  0  0  0  0  0  0  0  0  0
   18.0163   19.1717   22.9888 H   0  0  0  0  0  0  0  0  0  0  0  0
   19.8843   19.1977   23.9951 C   0  0  0  0  0  0  0  0  0  0  0  0
   20.1864   19.0911   25.0405 H   0  0  0  0  0  0  0  0  0  0  0  0
   20.1309   20.2117   23.6765 H   0  0  0  0  0  0  0  0  0  0  0  0
   20.6487   18.1648   23.1398 C   0  0  0  0  0  0  0  0  0  0  0  0
   21.7254   18.2570   23.3346 H   0  0  0  0  0  0  0  0  0  0  0  0
   20.3661   17.1613   23.4848 H   0  0  0  0  0  0  0  0  0  0  0  0
   20.3857   18.2633   21.6129 C   0  0  0  0  0  0  0  0  0  0  0  0
   19.3200   18.4348   21.4137 H   0  0  0  0  0  0  0  0  0  0  0  0
   20.6121   17.2841   21.1688 H   0  0  0  0  0  0  0  0  0  0  0  0
   21.2407   19.3192   20.8660 C   0  0  0  0  0  0  0  0  0  0  0  0
   22.3078   19.0869   20.9896 H   0  0  0  0  0  0  0  0  0  0  0  0
   21.0346   19.2305   19.7901 H   0  0  0  0  0  0  0  0  0  0  0  0
   20.9798   20.7795   21.2964 C   0  0  0  0  0  0  0  0  0  0  0  0
   21.3816   20.9791   22.2968 H   0  0  0  0  0  0  0  0  0  0  0  0
   21.4737   21.4751   20.6056 H   0  0  0  0  0  0  0  0  0  0  0  0
   19.9068   21.0106   21.2942 H   0  0  0  0  0  0  0  0  0  0  0  0
  1  2  1  0  0  0  0
  1  3  1  0  0  0  0
  1  4  1  0  0  0  0
  1  5  1  0  0  0  0
  5  6  1  0  0  0  0
  5  7  1  0  0  0  0
  5  8  1  0  0  0  0
  8  9  1  0  0  0  0
  8 10  1  0  0  0  0
  8 11  1  0  0  0  0
 11 12  1  0  0  0  0
 11 13  1  0  0  0  0
 11 14  1  0  0  0  0
 14 15  1  0  0  0  0
 14 16  1  0  0  0  0
 14 17  1  0  0  0  0
 17 18  1  0  0  0  0
 17 19  1  0  0  0  0
 17 20  1  0  0  0  0
M  END
> <VConfSearch Rank>
862

> <Conf_Id>
65

> <Delta U+W>
2.949

> <U+W>
-8.829

> <U>
49.435

> <W>
-58.263

> <W(PB)>
-60.125

> <W(SA)>
1.862

> <Valence>
3.797

> <Coulomb>
45.253

> <VdW>
0.384

> <VdW6>
-5.596

> <VdW12>
5.980

> <Bond>
0.198

> <Angle>
1.369

> <Pdih>
2.230

> <Idih>
0.000

> <Tether>
0.000

$$$$
VeraChem MOL file


 20 19  0  0  0  0  0  0  0  0999 V2000     
   21.2885   18.0345   21.4170 N   0  3  0  0  0  0  0  0  0  0  0  0
   22.2568   18.0263   21.0793 H   0  0  0  0  0  0  0  0  0  0  0  0
   21.3217   18.0744   22.4403 H   0  0  0  0  0  0  0  0  0  0  0  0
   20.8757   17.1322   21.1602 H   0  0  0  0  0  0  0  0  0  0  0  0
   20.5014   19.1968   20.8435 C   0  0  0  0  0  0  0  0  0  0  0  0
   20.5100   19.0828   19.7561 H   0  0  0  0  0  0  0  0  0  0  0  0
   21.0193   20.1273   21.0910 H   0  0  0  0  0  0  0  0  0  0  0  0
   19.0398   19.2651   21.3309 C   0  0  0  0  0  0  0  0  0  0  0  0
   18.4661   19.8327   20.5864 H   0  0  0  0  0  0  0  0  0  0  0  0
   18.6032   18.2576   21.3391 H   0  0  0  0  0  0  0  0  0  0  0  0
   18.8336   19.9491   22.7092 C   0  0  0  0  0  0  0  0  0  0  0  0
   17.7524   19.9771   22.9031 H   0  0  0  0  0  0  0  0  0  0  0  0
   19.1491   21.0004   22.6564 H   0  0  0  0  0  0  0  0  0  0  0  0
   19.5182   19.2480   23.9101 C   0  0  0  0  0  0  0  0  0  0  0  0
   18.8699   19.3515   24.7917 H   0  0  0  0  0  0  0  0  0  0  0  0
   19.5996   18.1678   23.7292 H   0  0  0  0  0  0  0  0  0  0  0  0
   20.8966   19.8556   24.2634 C   0  0  0  0  0  0  0  0  0  0  0  0
   21.5852   19.8568   23.4118 H   0  0  0  0  0  0  0  0  0  0  0  0
   20.7857   20.8954   24.5977 H   0  0  0  0  0  0  0  0  0  0  0  0
   21.3686   19.2948   25.0807 H   0  0  0  0  0  0  0  0  0  0  0  0
  1  2  1  0  0  0  0
  1  3  1  0  0  0  0
  1  4  1  0  0  0  0
  1  5  1  0  0  0  0
  5  6  1  0  0  0  0
  5  7  1  0  0  0  0
  5  8  1  0  0  0  0
  8  9  1  0  0  0  0
  8 10  1  0  0  0  0
  8 11  1  0  0  0  0
 11 12  1  0  0  0  0
 11 13  1  0  0  0  0
 11 14  1  0  0  0  0
 14 15  1  0  0  0  0
 14 16  1  0  0  0  0
 14 17  1  0  0  0  0
 17 18  1  0  0  0  0
 17 19  1  0  0  0  0
 17 20  1  0  0  0  0
M  END
> <VConfSearch Rank>
863

> <Conf_Id>
77

> <Delta U+W>
5.366

> <U+W>
-6.412

> <U>
51.542

> <W>
-57.954

> <W(PB)>
-59.811

> <W(SA)>
1.857

> <Valence>
5.347

> <Coulomb>
45.870

> <VdW>
0.325

> <VdW6>
-6.161

> <VdW12>
6.486

> <Bond>
0.201

> <Angle>
1.484

> <Pdih>
3.662

> <Idih>
0.000

> <Tether>
0.000

$$$$
VeraChem MOL file


 20 19  0  0  0  0  0  0  0  0999 V2000     
   19.2965   18.5128   24.1282 N   0  3  0  0  0  0  0  0  0  0  0  0
   19.8516   18.6331   24.9813 H   0  0  0  0  0  0  0  0  0  0  0  0
   19.1752   19.4403   23.7101 H   0  0  0  0  0  0  0  0  0  0  0  0
   18.3696   18.1846   24.4194 H   0  0  0  0  0  0  0  0  0  0  0  0
   19.9561   17.5511   23.1588 C   0  0  0  0  0  0  0  0  0  0  0  0
   19.2941   17.4092   22.3004 H   0  0  0  0  0  0  0  0  0  0  0  0
   20.0517   16.5923   23.6755 H   0  0  0  0  0  0  0  0  0  0  0  0
   21.3491   18.0044   22.6768 C   0  0  0  0  0  0  0  0  0  0  0  0
   21.9211   18.4101   23.5218 H   0  0  0  0  0  0  0  0  0  0  0  0
   21.8957   17.1103   22.3486 H   0  0  0  0  0  0  0  0  0  0  0  0
   21.3447   19.0153   21.4987 C   0  0  0  0  0  0  0  0  0  0  0  0
   20.8898   18.5540   20.6111 H   0  0  0  0  0  0  0  0  0  0  0  0
   22.3920   19.2057   21.2258 H   0  0  0  0  0  0  0  0  0  0  0  0
   20.6705   20.3794   21.7937 C   0  0  0  0  0  0  0  0  0  0  0  0
   20.7568   20.6283   22.8599 H   0  0  0  0  0  0  0  0  0  0  0  0
   21.2241   21.1658   21.2613 H   0  0  0  0  0  0  0  0  0  0  0  0
   19.1963   20.4420   21.3282 C   0  0  0  0  0  0  0  0  0  0  0  0
   18.7432   21.4025   21.6060 H   0  0  0  0  0  0  0  0  0  0  0  0
   19.1323   20.3506   20.2360 H   0  0  0  0  0  0  0  0  0  0  0  0
   18.5856   19.6420   21.7603 H   0  0  0  0  0  0  0  0  0  0  0  0
  1  2  1  0  0  0  0
  1  3  1  0  0  0  0
  1  4  1  0  0  0  0
  1  5  1  0  0  0  0
  5  6  1  0  0  0  0
  5  7  1  0  0  0  0
  5  8  1  0  0  0  0
  8  9  1  0  0  0  0
  8 10  1  0  0  0  0
  8 11  1  0  0  0  0
 11 12  1  0  0  0  0
 11 13  1  0  0  0  0
 11 14  1  0  0  0  0
 14 15  1  0  0  0  0
 14 16  1  0  0  0  0
 14 17  1  0  0  0  0
 17 18  1  0  0  0  0
 17 19  1  0  0  0  0
 17 20  1  0  0  0  0
M  END
> <VConfSearch Rank>
864

> <Conf_Id>
67

> <Delta U+W>
5.353

> <U+W>
-6.425

> <U>
51.541

> <W>
-57.966

> <W(PB)>
-59.821

> <W(SA)>
1.855

> <Valence>
5.347

> <Coulomb>
45.870

> <VdW>
0.325

> <VdW6>
-6.161

> <VdW12>
6.486

> <Bond>
0.201

> <Angle>
1.485

> <Pdih>
3.662

> <Idih>
0.000

> <Tether>
0.000

$$$$
VeraChem MOL file


 20 19  0  0  0  0  0  0  0  0999 V2000     
   22.9408   18.5329   23.9481 N   0  3  0  0  0  0  0  0  0  0  0  0
   23.0192   19.4153   24.4635 H   0  0  0  0  0  0  0  0  0  0  0  0
   23.3329   17.8012   24.5502 H   0  0  0  0  0  0  0  0  0  0  0  0
   23.5551   18.6058   23.1309 H   0  0  0  0  0  0  0  0  0  0  0  0
   21.5086   18.2314   23.5553 C   0  0  0  0  0  0  0  0  0  0  0  0
   20.9199   18.1376   24.4719 H   0  0  0  0  0  0  0  0  0  0  0  0
   21.4959   17.2675   23.0392 H   0  0  0  0  0  0  0  0  0  0  0  0
   20.8893   19.3115   22.6504 C   0  0  0  0  0  0  0  0  0  0  0  0
   20.9186   20.2806   23.1663 H   0  0  0  0  0  0  0  0  0  0  0  0
   21.4927   19.4136   21.7385 H   0  0  0  0  0  0  0  0  0  0  0  0
   19.4313   18.9665   22.2737 C   0  0  0  0  0  0  0  0  0  0  0  0
   18.8317   18.8601   23.1885 H   0  0  0  0  0  0  0  0  0  0  0  0
   19.4050   17.9941   21.7623 H   0  0  0  0  0  0  0  0  0  0  0  0
   18.7990   20.0445   21.3649 C   0  0  0  0  0  0  0  0  0  0  0  0
   18.8214   21.0186   21.8735 H   0  0  0  0  0  0  0  0  0  0  0  0
   19.3946   20.1527   20.4475 H   0  0  0  0  0  0  0  0  0  0  0  0
   17.3424   19.6957   20.9913 C   0  0  0  0  0  0  0  0  0  0  0  0
   16.7133   19.6145   21.8873 H   0  0  0  0  0  0  0  0  0  0  0  0
   16.9110   20.4722   20.3464 H   0  0  0  0  0  0  0  0  0  0  0  0
   17.2910   18.7419   20.4500 H   0  0  0  0  0  0  0  0  0  0  0  0
  1  2  1  0  0  0  0
  1  3  1  0  0  0  0
  1  4  1  0  0  0  0
  1  5  1  0  0  0  0
  5  6  1  0  0  0  0
  5  7  1  0  0  0  0
  5  8  1  0  0  0  0
  8  9  1  0  0  0  0
  8 10  1  0  0  0  0
  8 11  1  0  0  0  0
 11 12  1  0  0  0  0
 11 13  1  0  0  0  0
 11 14  1  0  0  0  0
 14 15  1  0  0  0  0
 14 16  1  0  0  0  0
 14 17  1  0  0  0  0
 17 18  1  0  0  0  0
 17 19  1  0  0  0  0
 17 20  1  0  0  0  0
M  END
> <VConfSearch Rank>
865

> <Conf_Id>
72

> <Delta U+W>
0.000

> <U+W>
-11.778

> <U>
45.772

> <W>
-57.550

> <W(PB)>
-59.511

> <W(SA)>
1.961

> <Valence>
1.299

> <Coulomb>
44.177

> <VdW>
0.297

> <VdW6>
-3.490

> <VdW12>
3.786

> <Bond>
0.096

> <Angle>
0.381

> <Pdih>
0.822

> <Idih>
0.000

> <Tether>
0.000

$$$$
VeraChem MOL file


 20 19  0  0  0  0  0  0  0  0999 V2000     
   17.6137   18.9985   24.1578 N   0  3  0  0  0  0  0  0  0  0  0  0
   17.8939   19.8185   24.7050 H   0  0  0  0  0  0  0  0  0  0  0  0
   16.9484   19.3223   23.4487 H   0  0  0  0  0  0  0  0  0  0  0  0
   17.0954   18.3812   24.7917 H   0  0  0  0  0  0  0  0  0  0  0  0
   18.8053   18.2966   23.5380 C   0  0  0  0  0  0  0  0  0  0  0  0
   18.4372   17.4198   22.9985 H   0  0  0  0  0  0  0  0  0  0  0  0
   19.4541   17.9535   24.3484 H   0  0  0  0  0  0  0  0  0  0  0  0
   19.6061   19.1960   22.5793 C   0  0  0  0  0  0  0  0  0  0  0  0
   18.9469   19.5511   21.7761 H   0  0  0  0  0  0  0  0  0  0  0  0
   19.9552   20.0807   23.1266 H   0  0  0  0  0  0  0  0  0  0  0  0
   20.8095   18.4392   21.9692 C   0  0  0  0  0  0  0  0  0  0  0  0
   20.4478   17.5177   21.4918 H   0  0  0  0  0  0  0  0  0  0  0  0
   21.4930   18.1239   22.7698 H   0  0  0  0  0  0  0  0  0  0  0  0
   21.5900   19.2648   20.9176 C   0  0  0  0  0  0  0  0  0  0  0  0
   22.3562   18.6218   20.4623 H   0  0  0  0  0  0  0  0  0  0  0  0
   20.9152   19.5620   20.1026 H   0  0  0  0  0  0  0  0  0  0  0  0
   22.2773   20.5180   21.5065 C   0  0  0  0  0  0  0  0  0  0  0  0
   22.9367   20.2510   22.3424 H   0  0  0  0  0  0  0  0  0  0  0  0
   22.8891   21.0151   20.7426 H   0  0  0  0  0  0  0  0  0  0  0  0
   21.5432   21.2491   21.8670 H   0  0  0  0  0  0  0  0  0  0  0  0
  1  2  1  0  0  0  0
  1  3  1  0  0  0  0
  1  4  1  0  0  0  0
  1  5  1  0  0  0  0
  5  6  1  0  0  0  0
  5  7  1  0  0  0  0
  5  8  1  0  0  0  0
  8  9  1  0  0  0  0
  8 10  1  0  0  0  0
  8 11  1  0  0  0  0
 11 12  1  0  0  0  0
 11 13  1  0  0  0  0
 11 14  1  0  0  0  0
 14 15  1  0  0  0  0
 14 16  1  0  0  0  0
 14 17  1  0  0  0  0
 17 18  1  0  0  0  0
 17 19  1  0  0  0  0
 17 20  1  0  0  0  0
M  END
> <VConfSearch Rank>
866

> <Conf_Id>
42

> <Delta U+W>
0.508

> <U+W>
-11.270

> <U>
46.486

> <W>
-57.756

> <W(PB)>
-59.705

> <W(SA)>
1.949

> <Valence>
1.806

> <Coulomb>
44.248

> <VdW>
0.433

> <VdW6>
-4.089

> <VdW12>
4.522

> <Bond>
0.131

> <Angle>
0.628

> <Pdih>
1.047

> <Idih>
0.000

> <Tether>
0.000

$$$$
VeraChem MOL file


 20 19  0  0  0  0  0  0  0  0999 V2000     
   17.9592   17.0950   23.0691 N   0  3  0  0  0  0  0  0  0  0  0  0
   17.4747   17.1604   22.1683 H   0  0  0  0  0  0  0  0  0  0  0  0
   18.6118   16.3075   23.0037 H   0  0  0  0  0  0  0  0  0  0  0  0
   17.2537   16.8391   23.7680 H   0  0  0  0  0  0  0  0  0  0  0  0
   18.6646   18.3873   23.4281 C   0  0  0  0  0  0  0  0  0  0  0  0
   19.1314   18.2561   24.4081 H   0  0  0  0  0  0  0  0  0  0  0  0
   17.9084   19.1727   23.5105 H   0  0  0  0  0  0  0  0  0  0  0  0
   19.7309   18.8012   22.3981 C   0  0  0  0  0  0  0  0  0  0  0  0
   20.4741   17.9986   22.3106 H   0  0  0  0  0  0  0  0  0  0  0  0
   19.2608   18.9163   21.4125 H   0  0  0  0  0  0  0  0  0  0  0  0
   20.4225   20.1244   22.8030 C   0  0  0  0  0  0  0  0  0  0  0  0
   20.9321   19.9955   23.7680 H   0  0  0  0  0  0  0  0  0  0  0  0
   19.6554   20.8955   22.9600 H   0  0  0  0  0  0  0  0  0  0  0  0
   21.4321   20.6415   21.7495 C   0  0  0  0  0  0  0  0  0  0  0  0
   20.9212   20.7946   20.7886 H   0  0  0  0  0  0  0  0  0  0  0  0
   21.7955   21.6297   22.0646 H   0  0  0  0  0  0  0  0  0  0  0  0
   22.6458   19.7053   21.5495 C   0  0  0  0  0  0  0  0  0  0  0  0
   22.3457   18.7417   21.1196 H   0  0  0  0  0  0  0  0  0  0  0  0
   23.3725   20.1597   20.8637 H   0  0  0  0  0  0  0  0  0  0  0  0
   23.1579   19.5132   22.5013 H   0  0  0  0  0  0  0  0  0  0  0  0
  1  2  1  0  0  0  0
  1  3  1  0  0  0  0
  1  4  1  0  0  0  0
  1  5  1  0  0  0  0
  5  6  1  0  0  0  0
  5  7  1  0  0  0  0
  5  8  1  0  0  0  0
  8  9  1  0  0  0  0
  8 10  1  0  0  0  0
  8 11  1  0  0  0  0
 11 12  1  0  0  0  0
 11 13  1  0  0  0  0
 11 14  1  0  0  0  0
 14 15  1  0  0  0  0
 14 16  1  0  0  0  0
 14 17  1  0  0  0  0
 17 18  1  0  0  0  0
 17 19  1  0  0  0  0
 17 20  1  0  0  0  0
M  END
> <VConfSearch Rank>
867

> <Conf_Id>
41

> <Delta U+W>
0.515

> <U+W>
-11.263

> <U>
46.486

> <W>
-57.749

> <W(PB)>
-59.685

> <W(SA)>
1.936

> <Valence>
1.806

> <Coulomb>
44.248

> <VdW>
0.433

> <VdW6>
-4.089

> <VdW12>
4.522

> <Bond>
0.131

> <Angle>
0.628

> <Pdih>
1.047

> <Idih>
0.000

> <Tether>
0.000

$$$$
VeraChem MOL file


 20 19  0  0  0  0  0  0  0  0999 V2000     
   21.3288   18.0752   20.1943 N   0  3  0  0  0  0  0  0  0  0  0  0
   22.1142   17.9965   19.5397 H   0  0  0  0  0  0  0  0  0  0  0  0
   21.4276   17.3131   20.8713 H   0  0  0  0  0  0  0  0  0  0  0  0
   20.4747   17.8946   19.6574 H   0  0  0  0  0  0  0  0  0  0  0  0
   21.2943   19.4319   20.8712 C   0  0  0  0  0  0  0  0  0  0  0  0
   21.2325   20.1911   20.0867 H   0  0  0  0  0  0  0  0  0  0  0  0
   22.2389   19.5702   21.4041 H   0  0  0  0  0  0  0  0  0  0  0  0
   20.1161   19.6127   21.8486 C   0  0  0  0  0  0  0  0  0  0  0  0
   20.1158   20.6557   22.1888 H   0  0  0  0  0  0  0  0  0  0  0  0
   19.1696   19.4561   21.3145 H   0  0  0  0  0  0  0  0  0  0  0  0
   20.2009   18.6633   23.0703 C   0  0  0  0  0  0  0  0  0  0  0  0
   21.1398   18.8415   23.6126 H   0  0  0  0  0  0  0  0  0  0  0  0
   20.2379   17.6225   22.7224 H   0  0  0  0  0  0  0  0  0  0  0  0
   19.0063   18.8046   24.0449 C   0  0  0  0  0  0  0  0  0  0  0  0
   18.0653   18.6138   23.5101 H   0  0  0  0  0  0  0  0  0  0  0  0
   19.0854   18.0238   24.8143 H   0  0  0  0  0  0  0  0  0  0  0  0
   18.9383   20.1830   24.7415 C   0  0  0  0  0  0  0  0  0  0  0  0
   18.7340   20.9883   24.0253 H   0  0  0  0  0  0  0  0  0  0  0  0
   18.1345   20.1960   25.4890 H   0  0  0  0  0  0  0  0  0  0  0  0
   19.8796   20.4117   25.2579 H   0  0  0  0  0  0  0  0  0  0  0  0
  1  2  1  0  0  0  0
  1  3  1  0  0  0  0
  1  4  1  0  0  0  0
  1  5  1  0  0  0  0
  5  6  1  0  0  0  0
  5  7  1  0  0  0  0
  5  8  1  0  0  0  0
  8  9  1  0  0  0  0
  8 10  1  0  0  0  0
  8 11  1  0  0  0  0
 11 12  1  0  0  0  0
 11 13  1  0  0  0  0
 11 14  1  0  0  0  0
 14 15  1  0  0  0  0
 14 16  1  0  0  0  0
 14 17  1  0  0  0  0
 17 18  1  0  0  0  0
 17 19  1  0  0  0  0
 17 20  1  0  0  0  0
M  END
> <VConfSearch Rank>
868

> <Conf_Id>
33

> <Delta U+W>
0.703

> <U+W>
-11.075

> <U>
47.080

> <W>
-58.154

> <W(PB)>
-60.053

> <W(SA)>
1.899

> <Valence>
1.943

> <Coulomb>
44.572

> <VdW>
0.565

> <VdW6>
-4.575

> <VdW12>
5.139

> <Bond>
0.158

> <Angle>
0.700

> <Pdih>
1.085

> <Idih>
0.000

> <Tether>
0.000

$$$$
VeraChem MOL file


 20 19  0  0  0  0  0  0  0  0999 V2000     
   20.5857   21.8545   22.3541 N   0  3  0  0  0  0  0  0  0  0  0  0
   21.1749   22.6805   22.5024 H   0  0  0  0  0  0  0  0  0  0  0  0
   19.9659   22.0685   21.5664 H   0  0  0  0  0  0  0  0  0  0  0  0
   19.9957   21.7561   23.1854 H   0  0  0  0  0  0  0  0  0  0  0  0
   21.4147   20.6105   22.0987 C   0  0  0  0  0  0  0  0  0  0  0  0
   22.0666   20.4532   22.9623 H   0  0  0  0  0  0  0  0  0  0  0  0
   22.0460   20.8071   21.2279 H   0  0  0  0  0  0  0  0  0  0  0  0
   20.5764   19.3424   21.8439 C   0  0  0  0  0  0  0  0  0  0  0  0
   19.9103   19.5095   20.9871 H   0  0  0  0  0  0  0  0  0  0  0  0
   21.2619   18.5357   21.5561 H   0  0  0  0  0  0  0  0  0  0  0  0
   19.7513   18.9114   23.0828 C   0  0  0  0  0  0  0  0  0  0  0  0
   19.0934   19.7356   23.3885 H   0  0  0  0  0  0  0  0  0  0  0  0
   20.4262   18.7241   23.9295 H   0  0  0  0  0  0  0  0  0  0  0  0
   18.8743   17.6599   22.8345 C   0  0  0  0  0  0  0  0  0  0  0  0
   18.2419   17.4924   23.7176 H   0  0  0  0  0  0  0  0  0  0  0  0
   18.1878   17.8471   21.9969 H   0  0  0  0  0  0  0  0  0  0  0  0
   19.6930   16.3777   22.5596 C   0  0  0  0  0  0  0  0  0  0  0  0
   20.4099   16.1855   23.3684 H   0  0  0  0  0  0  0  0  0  0  0  0
   19.0289   15.5067   22.4866 H   0  0  0  0  0  0  0  0  0  0  0  0
   20.2485   16.4472   21.6163 H   0  0  0  0  0  0  0  0  0  0  0  0
  1  2  1  0  0  0  0
  1  3  1  0  0  0  0
  1  4  1  0  0  0  0
  1  5  1  0  0  0  0
  5  6  1  0  0  0  0
  5  7  1  0  0  0  0
  5  8  1  0  0  0  0
  8  9  1  0  0  0  0
  8 10  1  0  0  0  0
  8 11  1  0  0  0  0
 11 12  1  0  0  0  0
 11 13  1  0  0  0  0
 11 14  1  0  0  0  0
 14 15  1  0  0  0  0
 14 16  1  0  0  0  0
 14 17  1  0  0  0  0
 17 18  1  0  0  0  0
 17 19  1  0  0  0  0
 17 20  1  0  0  0  0
M  END
> <VConfSearch Rank>
869

> <Conf_Id>
24

> <Delta U+W>
0.847

> <U+W>
-10.931

> <U>
47.080

> <W>
-58.011

> <W(PB)>
-59.914

> <W(SA)>
1.903

> <Valence>
1.943

> <Coulomb>
44.572

> <VdW>
0.565

> <VdW6>
-4.575

> <VdW12>
5.140

> <Bond>
0.158

> <Angle>
0.700

> <Pdih>
1.085

> <Idih>
0.000

> <Tether>
0.000

$$$$
VeraChem MOL file


 20 19  0  0  0  0  0  0  0  0999 V2000     
   20.2260   18.6284   25.1730 N   0  3  0  0  0  0  0  0  0  0  0  0
   19.7192   19.1041   25.9269 H   0  0  0  0  0  0  0  0  0  0  0  0
   19.7582   17.7293   25.0215 H   0  0  0  0  0  0  0  0  0  0  0  0
   21.1647   18.4234   25.5294 H   0  0  0  0  0  0  0  0  0  0  0  0
   20.2702   19.4640   23.9095 C   0  0  0  0  0  0  0  0  0  0  0  0
   20.7532   20.4149   24.1499 H   0  0  0  0  0  0  0  0  0  0  0  0
   19.2401   19.6684   23.6059 H   0  0  0  0  0  0  0  0  0  0  0  0
   21.0246   18.7770   22.7556 C   0  0  0  0  0  0  0  0  0  0  0  0
   22.0446   18.5388   23.0852 H   0  0  0  0  0  0  0  0  0  0  0  0
   20.5460   17.8180   22.5197 H   0  0  0  0  0  0  0  0  0  0  0  0
   21.1037   19.6571   21.4832 C   0  0  0  0  0  0  0  0  0  0  0  0
   21.6621   19.1138   20.7084 H   0  0  0  0  0  0  0  0  0  0  0  0
   21.6950   20.5557   21.7074 H   0  0  0  0  0  0  0  0  0  0  0  0
   19.7321   20.0934   20.9073 C   0  0  0  0  0  0  0  0  0  0  0  0
   19.2017   20.7285   21.6299 H   0  0  0  0  0  0  0  0  0  0  0  0
   19.9076   20.7241   20.0245 H   0  0  0  0  0  0  0  0  0  0  0  0
   18.8310   18.9058   20.4993 C   0  0  0  0  0  0  0  0  0  0  0  0
   17.9152   19.2671   20.0137 H   0  0  0  0  0  0  0  0  0  0  0  0
   19.3468   18.2434   19.7921 H   0  0  0  0  0  0  0  0  0  0  0  0
   18.5294   18.3111   21.3706 H   0  0  0  0  0  0  0  0  0  0  0  0
  1  2  1  0  0  0  0
  1  3  1  0  0  0  0
  1  4  1  0  0  0  0
  1  5  1  0  0  0  0
  5  6  1  0  0  0  0
  5  7  1  0  0  0  0
  5  8  1  0  0  0  0
  8  9  1  0  0  0  0
  8 10  1  0  0  0  0
  8 11  1  0  0  0  0
 11 12  1  0  0  0  0
 11 13  1  0  0  0  0
 11 14  1  0  0  0  0
 14 15  1  0  0  0  0
 14 16  1  0  0  0  0
 14 17  1  0  0  0  0
 17 18  1  0  0  0  0
 17 19  1  0  0  0  0
 17 20  1  0  0  0  0
M  END
> <VConfSearch Rank>
870

> <Conf_Id>
64

> <Delta U+W>
0.707

> <U+W>
-11.070

> <U>
47.077

> <W>
-58.148

> <W(PB)>
-60.054

> <W(SA)>
1.906

> <Valence>
2.039

> <Coulomb>
44.655

> <VdW>
0.383

> <VdW6>
-4.912

> <VdW12>
5.295

> <Bond>
0.159

> <Angle>
0.856

> <Pdih>
1.024

> <Idih>
0.000

> <Tether>
0.000

$$$$
VeraChem MOL file


 20 19  0  0  0  0  0  0  0  0999 V2000     
   17.5757   18.2916   22.7193 N   0  3  0  0  0  0  0  0  0  0  0  0
   17.1268   18.0499   21.8302 H   0  0  0  0  0  0  0  0  0  0  0  0
   17.8460   17.4115   23.1693 H   0  0  0  0  0  0  0  0  0  0  0  0
   16.8542   18.7184   23.3099 H   0  0  0  0  0  0  0  0  0  0  0  0
   18.7611   19.2148   22.5224 C   0  0  0  0  0  0  0  0  0  0  0  0
   19.1685   19.4531   23.5084 H   0  0  0  0  0  0  0  0  0  0  0  0
   18.3972   20.1400   22.0677 H   0  0  0  0  0  0  0  0  0  0  0  0
   19.8647   18.6028   21.6391 C   0  0  0  0  0  0  0  0  0  0  0  0
   20.2243   17.6691   22.0900 H   0  0  0  0  0  0  0  0  0  0  0  0
   19.4352   18.3290   20.6662 H   0  0  0  0  0  0  0  0  0  0  0  0
   21.0518   19.5705   21.4064 C   0  0  0  0  0  0  0  0  0  0  0  0
   20.6949   20.4434   20.8423 H   0  0  0  0  0  0  0  0  0  0  0  0
   21.7926   19.0771   20.7621 H   0  0  0  0  0  0  0  0  0  0  0  0
   21.7523   20.0639   22.6983 C   0  0  0  0  0  0  0  0  0  0  0  0
   22.5603   20.7538   22.4169 H   0  0  0  0  0  0  0  0  0  0  0  0
   21.0532   20.6523   23.3081 H   0  0  0  0  0  0  0  0  0  0  0  0
   22.3486   18.9198   23.5494 C   0  0  0  0  0  0  0  0  0  0  0  0
   23.0362   18.3033   22.9560 H   0  0  0  0  0  0  0  0  0  0  0  0
   22.9112   19.3262   24.3997 H   0  0  0  0  0  0  0  0  0  0  0  0
   21.5643   18.2682   23.9544 H   0  0  0  0  0  0  0  0  0  0  0  0
  1  2  1  0  0  0  0
  1  3  1  0  0  0  0
  1  4  1  0  0  0  0
  1  5  1  0  0  0  0
  5  6  1  0  0  0  0
  5  7  1  0  0  0  0
  5  8  1  0  0  0  0
  8  9  1  0  0  0  0
  8 10  1  0  0  0  0
  8 11  1  0  0  0  0
 11 12  1  0  0  0  0
 11 13  1  0  0  0  0
 11 14  1  0  0  0  0
 14 15  1  0  0  0  0
 14 16  1  0  0  0  0
 14 17  1  0  0  0  0
 17 18  1  0  0  0  0
 17 19  1  0  0  0  0
 17 20  1  0  0  0  0
M  END
> <VConfSearch Rank>
871

> <Conf_Id>
22

> <Delta U+W>
0.731

> <U+W>
-11.047

> <U>
47.078

> <W>
-58.125

> <W(PB)>
-60.031

> <W(SA)>
1.906

> <Valence>
2.039

> <Coulomb>
44.655

> <VdW>
0.383

> <VdW6>
-4.913

> <VdW12>
5.296

> <Bond>
0.159

> <Angle>
0.856

> <Pdih>
1.024

> <Idih>
0.000

> <Tether>
0.000

$$$$
VeraChem MOL file


 20 19  0  0  0  0  0  0  0  0999 V2000     
   18.3861   21.2439   22.0353 N   0  3  0  0  0  0  0  0  0  0  0  0
   18.8357   22.0314   22.5128 H   0  0  0  0  0  0  0  0  0  0  0  0
   18.3140   21.4943   21.0441 H   0  0  0  0  0  0  0  0  0  0  0  0
   17.4285   21.1841   22.3970 H   0  0  0  0  0  0  0  0  0  0  0  0
   19.1471   19.9492   22.2384 C   0  0  0  0  0  0  0  0  0  0  0  0
   18.6001   19.1516   21.7284 H   0  0  0  0  0  0  0  0  0  0  0  0
   19.1563   19.7346   23.3095 H   0  0  0  0  0  0  0  0  0  0  0  0
   20.5915   20.0082   21.7105 C   0  0  0  0  0  0  0  0  0  0  0  0
   20.5717   20.3418   20.6644 H   0  0  0  0  0  0  0  0  0  0  0  0
   21.1536   20.7692   22.2678 H   0  0  0  0  0  0  0  0  0  0  0  0
   21.3413   18.6536   21.7791 C   0  0  0  0  0  0  0  0  0  0  0  0
   22.3186   18.7929   21.2963 H   0  0  0  0  0  0  0  0  0  0  0  0
   20.8173   17.8995   21.1757 H   0  0  0  0  0  0  0  0  0  0  0  0
   21.5878   18.1153   23.2125 C   0  0  0  0  0  0  0  0  0  0  0  0
   22.4978   17.4991   23.1976 H   0  0  0  0  0  0  0  0  0  0  0  0
   21.7976   18.9459   23.9009 H   0  0  0  0  0  0  0  0  0  0  0  0
   20.4350   17.2420   23.7612 C   0  0  0  0  0  0  0  0  0  0  0  0
   19.5088   17.8109   23.8932 H   0  0  0  0  0  0  0  0  0  0  0  0
   20.2247   16.3999   23.0891 H   0  0  0  0  0  0  0  0  0  0  0  0
   20.7048   16.8252   24.7402 H   0  0  0  0  0  0  0  0  0  0  0  0
  1  2  1  0  0  0  0
  1  3  1  0  0  0  0
  1  4  1  0  0  0  0
  1  5  1  0  0  0  0
  5  6  1  0  0  0  0
  5  7  1  0  0  0  0
  5  8  1  0  0  0  0
  8  9  1  0  0  0  0
  8 10  1  0  0  0  0
  8 11  1  0  0  0  0
 11 12  1  0  0  0  0
 11 13  1  0  0  0  0
 11 14  1  0  0  0  0
 14 15  1  0  0  0  0
 14 16  1  0  0  0  0
 14 17  1  0  0  0  0
 17 18  1  0  0  0  0
 17 19  1  0  0  0  0
 17 20  1  0  0  0  0
M  END
> <VConfSearch Rank>
872

> <Conf_Id>
61

> <Delta U+W>
2.669

> <U+W>
-9.108

> <U>
48.916

> <W>
-58.025

> <W(PB)>
-59.935

> <W(SA)>
1.911

> <Valence>
3.785

> <Coulomb>
44.716

> <VdW>
0.415

> <VdW6>
-4.836

> <VdW12>
5.251

> <Bond>
0.175

> <Angle>
1.195

> <Pdih>
2.415

> <Idih>
0.000

> <Tether>
0.000

$$$$
VeraChem MOL file


 20 19  0  0  0  0  0  0  0  0999 V2000     
   19.7430   19.2941   20.1774 N   0  3  0  0  0  0  0  0  0  0  0  0
   19.1672   19.7688   19.4740 H   0  0  0  0  0  0  0  0  0  0  0  0
   20.3297   18.6207   19.6749 H   0  0  0  0  0  0  0  0  0  0  0  0
   19.1078   18.7563   20.7727 H   0  0  0  0  0  0  0  0  0  0  0  0
   20.5751   20.2773   20.9785 C   0  0  0  0  0  0  0  0  0  0  0  0
   19.9039   21.0038   21.4443 H   0  0  0  0  0  0  0  0  0  0  0  0
   21.2092   20.8117   20.2660 H   0  0  0  0  0  0  0  0  0  0  0  0
   21.4695   19.6256   22.0541 C   0  0  0  0  0  0  0  0  0  0  0  0
   21.9441   18.7209   21.6514 H   0  0  0  0  0  0  0  0  0  0  0  0
   22.2891   20.3227   22.2734 H   0  0  0  0  0  0  0  0  0  0  0  0
   20.7465   19.3086   23.3884 C   0  0  0  0  0  0  0  0  0  0  0  0
   20.3277   20.2343   23.8068 H   0  0  0  0  0  0  0  0  0  0  0  0
   21.4985   18.9605   24.1101 H   0  0  0  0  0  0  0  0  0  0  0  0
   19.6314   18.2426   23.2762 C   0  0  0  0  0  0  0  0  0  0  0  0
   18.7976   18.6321   22.6788 H   0  0  0  0  0  0  0  0  0  0  0  0
   20.0164   17.3518   22.7603 H   0  0  0  0  0  0  0  0  0  0  0  0
   19.0929   17.8351   24.6644 C   0  0  0  0  0  0  0  0  0  0  0  0
   18.2965   17.0860   24.5668 H   0  0  0  0  0  0  0  0  0  0  0  0
   19.8876   17.4015   25.2854 H   0  0  0  0  0  0  0  0  0  0  0  0
   18.6775   18.7009   25.1964 H   0  0  0  0  0  0  0  0  0  0  0  0
  1  2  1  0  0  0  0
  1  3  1  0  0  0  0
  1  4  1  0  0  0  0
  1  5  1  0  0  0  0
  5  6  1  0  0  0  0
  5  7  1  0  0  0  0
  5  8  1  0  0  0  0
  8  9  1  0  0  0  0
  8 10  1  0  0  0  0
  8 11  1  0  0  0  0
 11 12  1  0  0  0  0
 11 13  1  0  0  0  0
 11 14  1  0  0  0  0
 14 15  1  0  0  0  0
 14 16  1  0  0  0  0
 14 17  1  0  0  0  0
 17 18  1  0  0  0  0
 17 19  1  0  0  0  0
 17 20  1  0  0  0  0
M  END
> <VConfSearch Rank>
873

> <Conf_Id>
69

> <Delta U+W>
2.811

> <U+W>
-8.967

> <U>
49.216

> <W>
-58.183

> <W(PB)>
-60.064

> <W(SA)>
1.881

> <Valence>
2.929

> <Coulomb>
46.006

> <VdW>
0.281

> <VdW6>
-4.909

> <VdW12>
5.190

> <Bond>
0.156

> <Angle>
0.974

> <Pdih>
1.799

> <Idih>
0.000

> <Tether>
0.000

$$$$
VeraChem MOL file


 20 19  0  0  0  0  0  0  0  0999 V2000     
   19.1530   17.5711   23.7878 N   0  3  0  0  0  0  0  0  0  0  0  0
   20.1200   17.8812   23.9128 H   0  0  0  0  0  0  0  0  0  0  0  0
   18.5885   18.0464   24.4989 H   0  0  0  0  0  0  0  0  0  0  0  0
   19.1267   16.5700   24.0086 H   0  0  0  0  0  0  0  0  0  0  0  0
   18.6444   17.8506   22.3865 C   0  0  0  0  0  0  0  0  0  0  0  0
   17.6174   17.4781   22.3408 H   0  0  0  0  0  0  0  0  0  0  0  0
   19.2443   17.2750   21.6764 H   0  0  0  0  0  0  0  0  0  0  0  0
   18.6538   19.3425   21.9919 C   0  0  0  0  0  0  0  0  0  0  0  0
   17.9239   19.4781   21.1827 H   0  0  0  0  0  0  0  0  0  0  0  0
   18.2927   19.9555   22.8283 H   0  0  0  0  0  0  0  0  0  0  0  0
   20.0230   19.8676   21.4886 C   0  0  0  0  0  0  0  0  0  0  0  0
   19.8833   20.8968   21.1298 H   0  0  0  0  0  0  0  0  0  0  0  0
   20.3418   19.2809   20.6158 H   0  0  0  0  0  0  0  0  0  0  0  0
   21.1445   19.8583   22.5537 C   0  0  0  0  0  0  0  0  0  0  0  0
   20.7930   20.3512   23.4710 H   0  0  0  0  0  0  0  0  0  0  0  0
   21.4051   18.8254   22.8164 H   0  0  0  0  0  0  0  0  0  0  0  0
   22.4160   20.5719   22.0466 C   0  0  0  0  0  0  0  0  0  0  0  0
   22.2110   21.6238   21.8082 H   0  0  0  0  0  0  0  0  0  0  0  0
   23.2046   20.5481   22.8098 H   0  0  0  0  0  0  0  0  0  0  0  0
   22.8072   20.0867   21.1429 H   0  0  0  0  0  0  0  0  0  0  0  0
  1  2  1  0  0  0  0
  1  3  1  0  0  0  0
  1  4  1  0  0  0  0
  1  5  1  0  0  0  0
  5  6  1  0  0  0  0
  5  7  1  0  0  0  0
  5  8  1  0  0  0  0
  8  9  1  0  0  0  0
  8 10  1  0  0  0  0
  8 11  1  0  0  0  0
 11 12  1  0  0  0  0
 11 13  1  0  0  0  0
 11 14  1  0  0  0  0
 14 15  1  0  0  0  0
 14 16  1  0  0  0  0
 14 17  1  0  0  0  0
 17 18  1  0  0  0  0
 17 19  1  0  0  0  0
 17 20  1  0  0  0  0
M  END
> <VConfSearch Rank>
874

> <Conf_Id>
26

> <Delta U+W>
2.809

> <U+W>
-8.969

> <U>
49.216

> <W>
-58.185

> <W(PB)>
-60.088

> <W(SA)>
1.903

> <Valence>
2.929

> <Coulomb>
46.006

> <VdW>
0.281

> <VdW6>
-4.909

> <VdW12>
5.190

> <Bond>
0.156

> <Angle>
0.974

> <Pdih>
1.799

> <Idih>
0.000

> <Tether>
0.000

$$$$
VeraChem MOL file


 20 19  0  0  0  0  0  0  0  0999 V2000     
   22.5265   18.9050   22.6631 N   0  3  0  0  0  0  0  0  0  0  0  0
   22.0969   18.3260   23.3904 H   0  0  0  0  0  0  0  0  0  0  0  0
   22.9836   18.2701   22.0013 H   0  0  0  0  0  0  0  0  0  0  0  0
   23.2682   19.4517   23.1129 H   0  0  0  0  0  0  0  0  0  0  0  0
   21.5068   19.7942   21.9786 C   0  0  0  0  0  0  0  0  0  0  0  0
   22.0372   20.4025   21.2409 H   0  0  0  0  0  0  0  0  0  0  0  0
   21.0827   20.4657   22.7297 H   0  0  0  0  0  0  0  0  0  0  0  0
   20.3745   19.0144   21.2799 C   0  0  0  0  0  0  0  0  0  0  0  0
   19.7295   19.7266   20.7495 H   0  0  0  0  0  0  0  0  0  0  0  0
   20.8081   18.3687   20.5049 H   0  0  0  0  0  0  0  0  0  0  0  0
   19.5164   18.1513   22.2420 C   0  0  0  0  0  0  0  0  0  0  0  0
   20.1320   17.3367   22.6464 H   0  0  0  0  0  0  0  0  0  0  0  0
   18.7203   17.6625   21.6636 H   0  0  0  0  0  0  0  0  0  0  0  0
   18.8779   18.9306   23.4203 C   0  0  0  0  0  0  0  0  0  0  0  0
   18.3151   18.2227   24.0448 H   0  0  0  0  0  0  0  0  0  0  0  0
   19.6602   19.3483   24.0684 H   0  0  0  0  0  0  0  0  0  0  0  0
   17.9248   20.0586   22.9643 C   0  0  0  0  0  0  0  0  0  0  0  0
   17.1417   19.6695   22.3006 H   0  0  0  0  0  0  0  0  0  0  0  0
   17.4321   20.5192   23.8303 H   0  0  0  0  0  0  0  0  0  0  0  0
   18.4646   20.8513   22.4316 H   0  0  0  0  0  0  0  0  0  0  0  0
  1  2  1  0  0  0  0
  1  3  1  0  0  0  0
  1  4  1  0  0  0  0
  1  5  1  0  0  0  0
  5  6  1  0  0  0  0
  5  7  1  0  0  0  0
  5  8  1  0  0  0  0
  8  9  1  0  0  0  0
  8 10  1  0  0  0  0
  8 11  1  0  0  0  0
 11 12  1  0  0  0  0
 11 13  1  0  0  0  0
 11 14  1  0  0  0  0
 14 15  1  0  0  0  0
 14 16  1  0  0  0  0
 14 17  1  0  0  0  0
 17 18  1  0  0  0  0
 17 19  1  0  0  0  0
 17 20  1  0  0  0  0
M  END
> <VConfSearch Rank>
875

> <Conf_Id>
2

> <Delta U+W>
0.994

> <U+W>
-10.784

> <U>
47.562

> <W>
-58.346

> <W(PB)>
-60.221

> <W(SA)>
1.875

> <Valence>
2.149

> <Coulomb>
45.034

> <VdW>
0.378

> <VdW6>
-5.599

> <VdW12>
5.977

> <Bond>
0.185

> <Angle>
0.935

> <Pdih>
1.028

> <Idih>
0.000

> <Tether>
0.000

$$$$
VeraChem MOL file


 20 19  0  0  0  0  0  0  0  0999 V2000     
   20.6798   16.7648   21.9884 N   0  3  0  0  0  0  0  0  0  0  0  0
   21.6079   16.4236   22.2573 H   0  0  0  0  0  0  0  0  0  0  0  0
   20.1055   16.7796   22.8362 H   0  0  0  0  0  0  0  0  0  0  0  0
   20.2734   16.0619   21.3622 H   0  0  0  0  0  0  0  0  0  0  0  0
   20.7491   18.1306   21.3336 C   0  0  0  0  0  0  0  0  0  0  0  0
   19.7359   18.4200   21.0428 H   0  0  0  0  0  0  0  0  0  0  0  0
   21.3482   18.0339   20.4241 H   0  0  0  0  0  0  0  0  0  0  0  0
   21.3620   19.2203   22.2365 C   0  0  0  0  0  0  0  0  0  0  0  0
   22.3907   18.9362   22.4947 H   0  0  0  0  0  0  0  0  0  0  0  0
   21.4442   20.1513   21.6613 H   0  0  0  0  0  0  0  0  0  0  0  0
   20.5623   19.4823   23.5400 C   0  0  0  0  0  0  0  0  0  0  0  0
   21.0524   20.2915   24.0987 H   0  0  0  0  0  0  0  0  0  0  0  0
   20.6218   18.5968   24.1870 H   0  0  0  0  0  0  0  0  0  0  0  0
   19.0713   19.8483   23.3257 C   0  0  0  0  0  0  0  0  0  0  0  0
   18.5383   19.0119   22.8538 H   0  0  0  0  0  0  0  0  0  0  0  0
   18.6003   19.9900   24.3085 H   0  0  0  0  0  0  0  0  0  0  0  0
   18.8694   21.1312   22.4877 C   0  0  0  0  0  0  0  0  0  0  0  0
   19.2228   20.9991   21.4575 H   0  0  0  0  0  0  0  0  0  0  0  0
   17.8051   21.3959   22.4401 H   0  0  0  0  0  0  0  0  0  0  0  0
   19.4068   21.9802   22.9297 H   0  0  0  0  0  0  0  0  0  0  0  0
  1  2  1  0  0  0  0
  1  3  1  0  0  0  0
  1  4  1  0  0  0  0
  1  5  1  0  0  0  0
  5  6  1  0  0  0  0
  5  7  1  0  0  0  0
  5  8  1  0  0  0  0
  8  9  1  0  0  0  0
  8 10  1  0  0  0  0
  8 11  1  0  0  0  0
 11 12  1  0  0  0  0
 11 13  1  0  0  0  0
 11 14  1  0  0  0  0
 14 15  1  0  0  0  0
 14 16  1  0  0  0  0
 14 17  1  0  0  0  0
 17 18  1  0  0  0  0
 17 19  1  0  0  0  0
 17 20  1  0  0  0  0
M  END
> <VConfSearch Rank>
876

> <Conf_Id>
1

> <Delta U+W>
1.032

> <U+W>
-10.746

> <U>
47.562

> <W>
-58.308

> <W(PB)>
-60.184

> <W(SA)>
1.877

> <Valence>
2.149

> <Coulomb>
45.035

> <VdW>
0.378

> <VdW6>
-5.599

> <VdW12>
5.978

> <Bond>
0.185

> <Angle>
0.935

> <Pdih>
1.028

> <Idih>
0.000

> <Tether>
0.000

$$$$
VeraChem MOL file


 20 19  0  0  0  0  0  0  0  0999 V2000     
   18.7175   17.5059   21.7452 N   0  3  0  0  0  0  0  0  0  0  0  0
   18.1520   17.7056   20.9143 H   0  0  0  0  0  0  0  0  0  0  0  0
   19.6505   17.2377   21.4192 H   0  0  0  0  0  0  0  0  0  0  0  0
   18.3078   16.6793   22.1929 H   0  0  0  0  0  0  0  0  0  0  0  0
   18.7697   18.6904   22.6906 C   0  0  0  0  0  0  0  0  0  0  0  0
   19.3583   18.3994   23.5621 H   0  0  0  0  0  0  0  0  0  0  0  0
   17.7479   18.8882   23.0260 H   0  0  0  0  0  0  0  0  0  0  0  0
   19.3497   19.9714   22.0538 C   0  0  0  0  0  0  0  0  0  0  0  0
   18.7372   20.2236   21.1781 H   0  0  0  0  0  0  0  0  0  0  0  0
   19.2334   20.8099   22.7531 H   0  0  0  0  0  0  0  0  0  0  0  0
   20.8346   19.8631   21.6135 C   0  0  0  0  0  0  0  0  0  0  0  0
   21.0101   20.6172   20.8338 H   0  0  0  0  0  0  0  0  0  0  0  0
   21.0263   18.8955   21.1321 H   0  0  0  0  0  0  0  0  0  0  0  0
   21.8728   20.1100   22.7383 C   0  0  0  0  0  0  0  0  0  0  0  0
   22.8759   20.0993   22.2893 H   0  0  0  0  0  0  0  0  0  0  0  0
   21.7377   21.1189   23.1525 H   0  0  0  0  0  0  0  0  0  0  0  0
   21.8377   19.0752   23.8846 C   0  0  0  0  0  0  0  0  0  0  0  0
   21.8554   18.0487   23.4963 H   0  0  0  0  0  0  0  0  0  0  0  0
   22.7098   19.2009   24.5392 H   0  0  0  0  0  0  0  0  0  0  0  0
   20.9452   19.2007   24.5089 H   0  0  0  0  0  0  0  0  0  0  0  0
  1  2  1  0  0  0  0
  1  3  1  0  0  0  0
  1  4  1  0  0  0  0
  1  5  1  0  0  0  0
  5  6  1  0  0  0  0
  5  7  1  0  0  0  0
  5  8  1  0  0  0  0
  8  9  1  0  0  0  0
  8 10  1  0  0  0  0
  8 11  1  0  0  0  0
 11 12  1  0  0  0  0
 11 13  1  0  0  0  0
 11 14  1  0  0  0  0
 14 15  1  0  0  0  0
 14 16  1  0  0  0  0
 14 17  1  0  0  0  0
 17 18  1  0  0  0  0
 17 19  1  0  0  0  0
 17 20  1  0  0  0  0
M  END
> <VConfSearch Rank>
877

> <Conf_Id>
80

> <Delta U+W>
2.920

> <U+W>
-8.857

> <U>
49.434

> <W>
-58.292

> <W(PB)>
-60.170

> <W(SA)>
1.879

> <Valence>
3.798

> <Coulomb>
45.253

> <VdW>
0.384

> <VdW6>
-5.595

> <VdW12>
5.979

> <Bond>
0.198

> <Angle>
1.368

> <Pdih>
2.231

> <Idih>
0.000

> <Tether>
0.000

$$$$
VeraChem MOL file


 20 19  0  0  0  0  0  0  0  0999 V2000     
   21.6401   17.5429   21.6967 N   0  3  0  0  0  0  0  0  0  0  0  0
   21.2470   16.6391   21.4163 H   0  0  0  0  0  0  0  0  0  0  0  0
   22.6048   17.5687   21.3503 H   0  0  0  0  0  0  0  0  0  0  0  0
   21.6895   17.5475   22.7196 H   0  0  0  0  0  0  0  0  0  0  0  0
   20.8205   18.7036   21.1668 C   0  0  0  0  0  0  0  0  0  0  0  0
   20.8500   18.6550   20.0749 H   0  0  0  0  0  0  0  0  0  0  0  0
   21.3101   19.6290   21.4746 H   0  0  0  0  0  0  0  0  0  0  0  0
   19.3494   18.6929   21.6340 C   0  0  0  0  0  0  0  0  0  0  0  0
   18.7952   19.4818   21.1085 H   0  0  0  0  0  0  0  0  0  0  0  0
   18.8976   17.7446   21.3140 H   0  0  0  0  0  0  0  0  0  0  0  0
   19.1529   18.8508   23.1659 C   0  0  0  0  0  0  0  0  0  0  0  0
   19.8899   18.2507   23.7149 H   0  0  0  0  0  0  0  0  0  0  0  0
   18.1751   18.4219   23.4256 H   0  0  0  0  0  0  0  0  0  0  0  0
   19.1692   20.3125   23.6829 C   0  0  0  0  0  0  0  0  0  0  0  0
   18.3657   20.8857   23.1994 H   0  0  0  0  0  0  0  0  0  0  0  0
   18.9292   20.3011   24.7553 H   0  0  0  0  0  0  0  0  0  0  0  0
   20.5133   21.0484   23.4891 C   0  0  0  0  0  0  0  0  0  0  0  0
   20.6894   21.2876   22.4337 H   0  0  0  0  0  0  0  0  0  0  0  0
   20.5113   21.9983   24.0394 H   0  0  0  0  0  0  0  0  0  0  0  0
   21.3541   20.4482   23.8600 H   0  0  0  0  0  0  0  0  0  0  0  0
  1  2  1  0  0  0  0
  1  3  1  0  0  0  0
  1  4  1  0  0  0  0
  1  5  1  0  0  0  0
  5  6  1  0  0  0  0
  5  7  1  0  0  0  0
  5  8  1  0  0  0  0
  8  9  1  0  0  0  0
  8 10  1  0  0  0  0
  8 11  1  0  0  0  0
 11 12  1  0  0  0  0
 11 13  1  0  0  0  0
 11 14  1  0  0  0  0
 14 15  1  0  0  0  0
 14 16  1  0  0  0  0
 14 17  1  0  0  0  0
 17 18  1  0  0  0  0
 17 19  1  0  0  0  0
 17 20  1  0  0  0  0
M  END
> <VConfSearch Rank>
878

> <Conf_Id>
65

> <Delta U+W>
2.949

> <U+W>
-8.829

> <U>
49.435

> <W>
-58.263

> <W(PB)>
-60.125

> <W(SA)>
1.862

> <Valence>
3.797

> <Coulomb>
45.253

> <VdW>
0.384

> <VdW6>
-5.596

> <VdW12>
5.980

> <Bond>
0.198

> <Angle>
1.369

> <Pdih>
2.230

> <Idih>
0.000

> <Tether>
0.000

$$$$
VeraChem MOL file


 20 19  0  0  0  0  0  0  0  0999 V2000     
   19.3602   17.4405   22.1065 N   0  3  0  0  0  0  0  0  0  0  0  0
   18.8097   16.7365   22.6095 H   0  0  0  0  0  0  0  0  0  0  0  0
   18.7898   18.2895   22.0469 H   0  0  0  0  0  0  0  0  0  0  0  0
   19.4888   17.0917   21.1514 H   0  0  0  0  0  0  0  0  0  0  0  0
   20.6866   17.7124   22.7894 C   0  0  0  0  0  0  0  0  0  0  0  0
   21.2339   16.7661   22.8123 H   0  0  0  0  0  0  0  0  0  0  0  0
   20.4938   18.0176   23.8213 H   0  0  0  0  0  0  0  0  0  0  0  0
   21.5498   18.7761   22.0809 C   0  0  0  0  0  0  0  0  0  0  0  0
   22.5948   18.6055   22.3719 H   0  0  0  0  0  0  0  0  0  0  0  0
   21.5136   18.6208   20.9945 H   0  0  0  0  0  0  0  0  0  0  0  0
   21.1976   20.2487   22.4233 C   0  0  0  0  0  0  0  0  0  0  0  0
   21.9192   20.8894   21.8977 H   0  0  0  0  0  0  0  0  0  0  0  0
   21.3654   20.4349   23.4931 H   0  0  0  0  0  0  0  0  0  0  0  0
   19.7712   20.7034   22.0217 C   0  0  0  0  0  0  0  0  0  0  0  0
   19.8164   21.7531   21.6990 H   0  0  0  0  0  0  0  0  0  0  0  0
   19.4206   20.1406   21.1461 H   0  0  0  0  0  0  0  0  0  0  0  0
   18.7539   20.6098   23.1836 C   0  0  0  0  0  0  0  0  0  0  0  0
   18.6993   19.6039   23.6135 H   0  0  0  0  0  0  0  0  0  0  0  0
   19.0284   21.2986   23.9933 H   0  0  0  0  0  0  0  0  0  0  0  0
   17.7485   20.8873   22.8410 H   0  0  0  0  0  0  0  0  0  0  0  0
  1  2  1  0  0  0  0
  1  3  1  0  0  0  0
  1  4  1  0  0  0  0
  1  5  1  0  0  0  0
  5  6  1  0  0  0  0
  5  7  1  0  0  0  0
  5  8  1  0  0  0  0
  8  9  1  0  0  0  0
  8 10  1  0  0  0  0
  8 11  1  0  0  0  0
 11 12  1  0  0  0  0
 11 13  1  0  0  0  0
 11 14  1  0  0  0  0
 14 15  1  0  0  0  0
 14 16  1  0  0  0  0
 14 17  1  0  0  0  0
 17 18  1  0  0  0  0
 17 19  1  0  0  0  0
 17 20  1  0  0  0  0
M  END
> <VConfSearch Rank>
879

> <Conf_Id>
77

> <Delta U+W>
5.366

> <U+W>
-6.412

> <U>
51.542

> <W>
-57.954

> <W(PB)>
-59.811

> <W(SA)>
1.857

> <Valence>
5.347

> <Coulomb>
45.870

> <VdW>
0.325

> <VdW6>
-6.161

> <VdW12>
6.486

> <Bond>
0.201

> <Angle>
1.484

> <Pdih>
3.662

> <Idih>
0.000

> <Tether>
0.000

$$$$
VeraChem MOL file


 20 19  0  0  0  0  0  0  0  0999 V2000     
   19.4813   17.6918   21.2002 N   0  3  0  0  0  0  0  0  0  0  0  0
   19.0335   18.0760   20.3622 H   0  0  0  0  0  0  0  0  0  0  0  0
   20.4645   17.9793   21.1796 H   0  0  0  0  0  0  0  0  0  0  0  0
   19.4589   16.6706   21.1086 H   0  0  0  0  0  0  0  0  0  0  0  0
   18.7950   18.1591   22.4691 C   0  0  0  0  0  0  0  0  0  0  0  0
   19.2688   17.6702   23.3246 H   0  0  0  0  0  0  0  0  0  0  0  0
   17.7576   17.8180   22.4154 H   0  0  0  0  0  0  0  0  0  0  0  0
   18.8125   19.6888   22.6641 C   0  0  0  0  0  0  0  0  0  0  0  0
   18.5994   20.1877   21.7093 H   0  0  0  0  0  0  0  0  0  0  0  0
   17.9789   19.9498   23.3295 H   0  0  0  0  0  0  0  0  0  0  0  0
   20.1134   20.2611   23.2885 C   0  0  0  0  0  0  0  0  0  0  0  0
   20.2506   19.8591   24.3020 H   0  0  0  0  0  0  0  0  0  0  0  0
   19.9665   21.3422   23.4195 H   0  0  0  0  0  0  0  0  0  0  0  0
   21.4022   20.0500   22.4536 C   0  0  0  0  0  0  0  0  0  0  0  0
   21.1634   20.0056   21.3825 H   0  0  0  0  0  0  0  0  0  0  0  0
   22.0467   20.9320   22.5760 H   0  0  0  0  0  0  0  0  0  0  0  0
   22.2135   18.8076   22.8919 C   0  0  0  0  0  0  0  0  0  0  0  0
   23.0853   18.6652   22.2402 H   0  0  0  0  0  0  0  0  0  0  0  0
   22.5850   18.9315   23.9176 H   0  0  0  0  0  0  0  0  0  0  0  0
   21.6188   17.8882   22.8676 H   0  0  0  0  0  0  0  0  0  0  0  0
  1  2  1  0  0  0  0
  1  3  1  0  0  0  0
  1  4  1  0  0  0  0
  1  5  1  0  0  0  0
  5  6  1  0  0  0  0
  5  7  1  0  0  0  0
  5  8  1  0  0  0  0
  8  9  1  0  0  0  0
  8 10  1  0  0  0  0
  8 11  1  0  0  0  0
 11 12  1  0  0  0  0
 11 13  1  0  0  0  0
 11 14  1  0  0  0  0
 14 15  1  0  0  0  0
 14 16  1  0  0  0  0
 14 17  1  0  0  0  0
 17 18  1  0  0  0  0
 17 19  1  0  0  0  0
 17 20  1  0  0  0  0
M  END
> <VConfSearch Rank>
880

> <Conf_Id>
67

> <Delta U+W>
5.353

> <U+W>
-6.425

> <U>
51.541

> <W>
-57.966

> <W(PB)>
-59.821

> <W(SA)>
1.855

> <Valence>
5.347

> <Coulomb>
45.870

> <VdW>
0.325

> <VdW6>
-6.161

> <VdW12>
6.486

> <Bond>
0.201

> <Angle>
1.485

> <Pdih>
3.662

> <Idih>
0.000

> <Tether>
0.000

$$$$
VeraChem MOL file


 20 19  0  0  0  0  0  0  0  0999 V2000     
   19.2336   21.5502   20.5598 N   0  3  0  0  0  0  0  0  0  0  0  0
   18.3631   21.1360   20.2117 H   0  0  0  0  0  0  0  0  0  0  0  0
   19.0678   22.5582   20.6497 H   0  0  0  0  0  0  0  0  0  0  0  0
   19.9390   21.4296   19.8261 H   0  0  0  0  0  0  0  0  0  0  0  0
   19.6699   20.9320   21.8727 C   0  0  0  0  0  0  0  0  0  0  0  0
   18.8881   21.1239   22.6125 H   0  0  0  0  0  0  0  0  0  0  0  0
   20.5822   21.4394   22.1980 H   0  0  0  0  0  0  0  0  0  0  0  0
   19.9273   19.4177   21.7723 C   0  0  0  0  0  0  0  0  0  0  0  0
   19.0134   18.9141   21.4301 H   0  0  0  0  0  0  0  0  0  0  0  0
   20.7017   19.2284   21.0170 H   0  0  0  0  0  0  0  0  0  0  0  0
   20.3694   18.8276   23.1299 C   0  0  0  0  0  0  0  0  0  0  0  0
   19.5947   19.0233   23.8845 H   0  0  0  0  0  0  0  0  0  0  0  0
   21.2810   19.3372   23.4718 H   0  0  0  0  0  0  0  0  0  0  0  0
   20.6306   17.3072   23.0412 C   0  0  0  0  0  0  0  0  0  0  0  0
   19.7204   16.7932   22.7015 H   0  0  0  0  0  0  0  0  0  0  0  0
   21.4066   17.1071   22.2889 H   0  0  0  0  0  0  0  0  0  0  0  0
   21.0719   16.7220   24.3998 C   0  0  0  0  0  0  0  0  0  0  0  0
   20.3006   16.8762   25.1656 H   0  0  0  0  0  0  0  0  0  0  0  0
   21.2524   15.6424   24.3166 H   0  0  0  0  0  0  0  0  0  0  0  0
   22.0000   17.1924   24.7498 H   0  0  0  0  0  0  0  0  0  0  0  0
  1  2  1  0  0  0  0
  1  3  1  0  0  0  0
  1  4  1  0  0  0  0
  1  5  1  0  0  0  0
  5  6  1  0  0  0  0
  5  7  1  0  0  0  0
  5  8  1  0  0  0  0
  8  9  1  0  0  0  0
  8 10  1  0  0  0  0
  8 11  1  0  0  0  0
 11 12  1  0  0  0  0
 11 13  1  0  0  0  0
 11 14  1  0  0  0  0
 14 15  1  0  0  0  0
 14 16  1  0  0  0  0
 14 17  1  0  0  0  0
 17 18  1  0  0  0  0
 17 19  1  0  0  0  0
 17 20  1  0  0  0  0
M  END
> <VConfSearch Rank>
881

> <Conf_Id>
72

> <Delta U+W>
0.000

> <U+W>
-11.778

> <U>
45.772

> <W>
-57.550

> <W(PB)>
-59.511

> <W(SA)>
1.961

> <Valence>
1.299

> <Coulomb>
44.177

> <VdW>
0.297

> <VdW6>
-3.490

> <VdW12>
3.786

> <Bond>
0.096

> <Angle>
0.381

> <Pdih>
0.822

> <Idih>
0.000

> <Tether>
0.000

$$$$
VeraChem MOL file


 20 19  0  0  0  0  0  0  0  0999 V2000     
   19.3185   21.3874   24.3628 N   0  3  0  0  0  0  0  0  0  0  0  0
   18.5456   20.8278   24.7367 H   0  0  0  0  0  0  0  0  0  0  0  0
   20.1024   21.2933   25.0163 H   0  0  0  0  0  0  0  0  0  0  0  0
   19.0193   22.3677   24.3969 H   0  0  0  0  0  0  0  0  0  0  0  0
   19.6978   20.9630   22.9583 C   0  0  0  0  0  0  0  0  0  0  0  0
   20.5022   21.6184   22.6135 H   0  0  0  0  0  0  0  0  0  0  0  0
   18.8289   21.1174   22.3128 H   0  0  0  0  0  0  0  0  0  0  0  0
   20.1528   19.4951   22.8716 C   0  0  0  0  0  0  0  0  0  0  0  0
   21.0154   19.3409   23.5334 H   0  0  0  0  0  0  0  0  0  0  0  0
   19.3451   18.8482   23.2364 H   0  0  0  0  0  0  0  0  0  0  0  0
   20.5318   19.1068   21.4229 C   0  0  0  0  0  0  0  0  0  0  0  0
   21.2864   19.8129   21.0491 H   0  0  0  0  0  0  0  0  0  0  0  0
   19.6556   19.2170   20.7689 H   0  0  0  0  0  0  0  0  0  0  0  0
   21.0954   17.6706   21.2955 C   0  0  0  0  0  0  0  0  0  0  0  0
   21.4345   17.5153   20.2617 H   0  0  0  0  0  0  0  0  0  0  0  0
   21.9864   17.5631   21.9299 H   0  0  0  0  0  0  0  0  0  0  0  0
   20.0675   16.5727   21.6526 C   0  0  0  0  0  0  0  0  0  0  0  0
   19.1549   16.6752   21.0512 H   0  0  0  0  0  0  0  0  0  0  0  0
   20.4864   15.5768   21.4589 H   0  0  0  0  0  0  0  0  0  0  0  0
   19.7874   16.6113   22.7126 H   0  0  0  0  0  0  0  0  0  0  0  0
  1  2  1  0  0  0  0
  1  3  1  0  0  0  0
  1  4  1  0  0  0  0
  1  5  1  0  0  0  0
  5  6  1  0  0  0  0
  5  7  1  0  0  0  0
  5  8  1  0  0  0  0
  8  9  1  0  0  0  0
  8 10  1  0  0  0  0
  8 11  1  0  0  0  0
 11 12  1  0  0  0  0
 11 13  1  0  0  0  0
 11 14  1  0  0  0  0
 14 15  1  0  0  0  0
 14 16  1  0  0  0  0
 14 17  1  0  0  0  0
 17 18  1  0  0  0  0
 17 19  1  0  0  0  0
 17 20  1  0  0  0  0
M  END
> <VConfSearch Rank>
882

> <Conf_Id>
42

> <Delta U+W>
0.508

> <U+W>
-11.270

> <U>
46.486

> <W>
-57.756

> <W(PB)>
-59.705

> <W(SA)>
1.949

> <Valence>
1.806

> <Coulomb>
44.248

> <VdW>
0.433

> <VdW6>
-4.089

> <VdW12>
4.522

> <Bond>
0.131

> <Angle>
0.628

> <Pdih>
1.047

> <Idih>
0.000

> <Tether>
0.000

$$$$
VeraChem MOL file


 20 19  0  0  0  0  0  0  0  0999 V2000     
   18.9895   17.5862   24.8272 N   0  3  0  0  0  0  0  0  0  0  0  0
   18.9745   16.6513   24.4074 H   0  0  0  0  0  0  0  0  0  0  0  0
   19.8686   17.6688   25.3475 H   0  0  0  0  0  0  0  0  0  0  0  0
   18.2317   17.6141   25.5175 H   0  0  0  0  0  0  0  0  0  0  0  0
   18.8427   18.6772   23.7857 C   0  0  0  0  0  0  0  0  0  0  0  0
   18.8367   19.6400   24.3039 H   0  0  0  0  0  0  0  0  0  0  0  0
   17.8750   18.5461   23.2939 H   0  0  0  0  0  0  0  0  0  0  0  0
   19.9650   18.6633   22.7323 C   0  0  0  0  0  0  0  0  0  0  0  0
   20.9319   18.7776   23.2384 H   0  0  0  0  0  0  0  0  0  0  0  0
   19.9777   17.6893   22.2255 H   0  0  0  0  0  0  0  0  0  0  0  0
   19.7740   19.7903   21.6899 C   0  0  0  0  0  0  0  0  0  0  0  0
   19.8075   20.7677   22.1911 H   0  0  0  0  0  0  0  0  0  0  0  0
   18.7709   19.7039   21.2494 H   0  0  0  0  0  0  0  0  0  0  0  0
   20.8180   19.7586   20.5473 C   0  0  0  0  0  0  0  0  0  0  0  0
   20.7714   18.7912   20.0277 H   0  0  0  0  0  0  0  0  0  0  0  0
   20.5485   20.5202   19.8021 H   0  0  0  0  0  0  0  0  0  0  0  0
   22.2636   20.0215   21.0276 C   0  0  0  0  0  0  0  0  0  0  0  0
   22.6233   19.2190   21.6834 H   0  0  0  0  0  0  0  0  0  0  0  0
   22.9483   20.0789   20.1716 H   0  0  0  0  0  0  0  0  0  0  0  0
   22.3316   20.9704   21.5753 H   0  0  0  0  0  0  0  0  0  0  0  0
  1  2  1  0  0  0  0
  1  3  1  0  0  0  0
  1  4  1  0  0  0  0
  1  5  1  0  0  0  0
  5  6  1  0  0  0  0
  5  7  1  0  0  0  0
  5  8  1  0  0  0  0
  8  9  1  0  0  0  0
  8 10  1  0  0  0  0
  8 11  1  0  0  0  0
 11 12  1  0  0  0  0
 11 13  1  0  0  0  0
 11 14  1  0  0  0  0
 14 15  1  0  0  0  0
 14 16  1  0  0  0  0
 14 17  1  0  0  0  0
 17 18  1  0  0  0  0
 17 19  1  0  0  0  0
 17 20  1  0  0  0  0
M  END
> <VConfSearch Rank>
883

> <Conf_Id>
41

> <Delta U+W>
0.515

> <U+W>
-11.263

> <U>
46.486

> <W>
-57.749

> <W(PB)>
-59.685

> <W(SA)>
1.936

> <Valence>
1.806

> <Coulomb>
44.248

> <VdW>
0.433

> <VdW6>
-4.089

> <VdW12>
4.522

> <Bond>
0.131

> <Angle>
0.628

> <Pdih>
1.047

> <Idih>
0.000

> <Tether>
0.000

$$$$
VeraChem MOL file


 20 19  0  0  0  0  0  0  0  0999 V2000     
   19.2255   18.3875   19.9620 N   0  3  0  0  0  0  0  0  0  0  0  0
   19.3546   18.2680   18.9517 H   0  0  0  0  0  0  0  0  0  0  0  0
   19.4365   17.4851   20.3981 H   0  0  0  0  0  0  0  0  0  0  0  0
   18.2292   18.5723   20.1150 H   0  0  0  0  0  0  0  0  0  0  0  0
   20.0974   19.4994   20.5130 C   0  0  0  0  0  0  0  0  0  0  0  0
   19.8461   20.4154   19.9715 H   0  0  0  0  0  0  0  0  0  0  0  0
   21.1404   19.2524   20.2971 H   0  0  0  0  0  0  0  0  0  0  0  0
   19.9234   19.7382   22.0258 C   0  0  0  0  0  0  0  0  0  0  0  0
   20.5024   20.6299   22.2963 H   0  0  0  0  0  0  0  0  0  0  0  0
   18.8718   19.9688   22.2418 H   0  0  0  0  0  0  0  0  0  0  0  0
   20.3897   18.5321   22.8797 C   0  0  0  0  0  0  0  0  0  0  0  0
   21.4486   18.3216   22.6752 H   0  0  0  0  0  0  0  0  0  0  0  0
   19.8328   17.6347   22.5795 H   0  0  0  0  0  0  0  0  0  0  0  0
   20.1883   18.7391   24.4007 C   0  0  0  0  0  0  0  0  0  0  0  0
   19.1280   18.9365   24.6121 H   0  0  0  0  0  0  0  0  0  0  0  0
   20.4350   17.8019   24.9192 H   0  0  0  0  0  0  0  0  0  0  0  0
   21.0563   19.8751   24.9889 C   0  0  0  0  0  0  0  0  0  0  0  0
   20.7621   20.8549   24.5930 H   0  0  0  0  0  0  0  0  0  0  0  0
   20.9474   19.9154   26.0804 H   0  0  0  0  0  0  0  0  0  0  0  0
   22.1191   19.7175   24.7639 H   0  0  0  0  0  0  0  0  0  0  0  0
  1  2  1  0  0  0  0
  1  3  1  0  0  0  0
  1  4  1  0  0  0  0
  1  5  1  0  0  0  0
  5  6  1  0  0  0  0
  5  7  1  0  0  0  0
  5  8  1  0  0  0  0
  8  9  1  0  0  0  0
  8 10  1  0  0  0  0
  8 11  1  0  0  0  0
 11 12  1  0  0  0  0
 11 13  1  0  0  0  0
 11 14  1  0  0  0  0
 14 15  1  0  0  0  0
 14 16  1  0  0  0  0
 14 17  1  0  0  0  0
 17 18  1  0  0  0  0
 17 19  1  0  0  0  0
 17 20  1  0  0  0  0
M  END
> <VConfSearch Rank>
884

> <Conf_Id>
33

> <Delta U+W>
0.703

> <U+W>
-11.075

> <U>
47.080

> <W>
-58.154

> <W(PB)>
-60.053

> <W(SA)>
1.899

> <Valence>
1.943

> <Coulomb>
44.572

> <VdW>
0.565

> <VdW6>
-4.575

> <VdW12>
5.139

> <Bond>
0.158

> <Angle>
0.700

> <Pdih>
1.085

> <Idih>
0.000

> <Tether>
0.000

$$$$
VeraChem MOL file


 20 19  0  0  0  0  0  0  0  0999 V2000     
   17.7948   19.4518   21.0456 N   0  3  0  0  0  0  0  0  0  0  0  0
   17.1721   19.2195   20.2647 H   0  0  0  0  0  0  0  0  0  0  0  0
   17.1980   19.7499   21.8236 H   0  0  0  0  0  0  0  0  0  0  0  0
   18.3445   20.2661   20.7565 H   0  0  0  0  0  0  0  0  0  0  0  0
   18.6784   18.2801   21.4283 C   0  0  0  0  0  0  0  0  0  0  0  0
   19.2686   17.9988   20.5520 H   0  0  0  0  0  0  0  0  0  0  0  0
   18.0239   17.4413   21.6807 H   0  0  0  0  0  0  0  0  0  0  0  0
   19.6180   18.5679   22.6158 C   0  0  0  0  0  0  0  0  0  0  0  0
   19.0236   18.8670   23.4893 H   0  0  0  0  0  0  0  0  0  0  0  0
   20.1210   17.6306   22.8842 H   0  0  0  0  0  0  0  0  0  0  0  0
   20.6740   19.6552   22.2936 C   0  0  0  0  0  0  0  0  0  0  0  0
   20.1657   20.5800   21.9905 H   0  0  0  0  0  0  0  0  0  0  0  0
   21.2796   19.3389   21.4329 H   0  0  0  0  0  0  0  0  0  0  0  0
   21.6041   19.9841   23.4868 C   0  0  0  0  0  0  0  0  0  0  0  0
   22.2410   20.8367   23.2121 H   0  0  0  0  0  0  0  0  0  0  0  0
   21.0039   20.3141   24.3463 H   0  0  0  0  0  0  0  0  0  0  0  0
   22.5093   18.8034   23.9070 C   0  0  0  0  0  0  0  0  0  0  0  0
   23.0973   18.4341   23.0568 H   0  0  0  0  0  0  0  0  0  0  0  0
   23.2124   19.1182   24.6890 H   0  0  0  0  0  0  0  0  0  0  0  0
   21.9232   17.9680   24.3092 H   0  0  0  0  0  0  0  0  0  0  0  0
  1  2  1  0  0  0  0
  1  3  1  0  0  0  0
  1  4  1  0  0  0  0
  1  5  1  0  0  0  0
  5  6  1  0  0  0  0
  5  7  1  0  0  0  0
  5  8  1  0  0  0  0
  8  9  1  0  0  0  0
  8 10  1  0  0  0  0
  8 11  1  0  0  0  0
 11 12  1  0  0  0  0
 11 13  1  0  0  0  0
 11 14  1  0  0  0  0
 14 15  1  0  0  0  0
 14 16  1  0  0  0  0
 14 17  1  0  0  0  0
 17 18  1  0  0  0  0
 17 19  1  0  0  0  0
 17 20  1  0  0  0  0
M  END
> <VConfSearch Rank>
885

> <Conf_Id>
24

> <Delta U+W>
0.847

> <U+W>
-10.931

> <U>
47.080

> <W>
-58.011

> <W(PB)>
-59.914

> <W(SA)>
1.903

> <Valence>
1.943

> <Coulomb>
44.572

> <VdW>
0.565

> <VdW6>
-4.575

> <VdW12>
5.140

> <Bond>
0.158

> <Angle>
0.700

> <Pdih>
1.085

> <Idih>
0.000

> <Tether>
0.000

$$$$
VeraChem MOL file


 20 19  0  0  0  0  0  0  0  0999 V2000     
   20.1422   17.0463   20.7980 N   0  3  0  0  0  0  0  0  0  0  0  0
   20.6793   16.9412   19.9308 H   0  0  0  0  0  0  0  0  0  0  0  0
   20.6003   16.4619   21.5042 H   0  0  0  0  0  0  0  0  0  0  0  0
   19.2171   16.6405   20.6252 H   0  0  0  0  0  0  0  0  0  0  0  0
   20.0526   18.4951   21.2328 C   0  0  0  0  0  0  0  0  0  0  0  0
   19.5828   19.0622   20.4247 H   0  0  0  0  0  0  0  0  0  0  0  0
   21.0710   18.8687   21.3683 H   0  0  0  0  0  0  0  0  0  0  0  0
   19.2517   18.6880   22.5344 C   0  0  0  0  0  0  0  0  0  0  0  0
   18.2442   18.2722   22.4009 H   0  0  0  0  0  0  0  0  0  0  0  0
   19.7173   18.1119   23.3442 H   0  0  0  0  0  0  0  0  0  0  0  0
   19.1271   20.1762   22.9466 C   0  0  0  0  0  0  0  0  0  0  0  0
   18.5372   20.2415   23.8713 H   0  0  0  0  0  0  0  0  0  0  0  0
   18.5483   20.7110   22.1808 H   0  0  0  0  0  0  0  0  0  0  0  0
   20.4772   20.9094   23.1538 C   0  0  0  0  0  0  0  0  0  0  0  0
   21.0375   20.9473   22.2097 H   0  0  0  0  0  0  0  0  0  0  0  0
   20.2703   21.9546   23.4232 H   0  0  0  0  0  0  0  0  0  0  0  0
   21.3575   20.2765   24.2555 C   0  0  0  0  0  0  0  0  0  0  0  0
   22.2552   20.8845   24.4268 H   0  0  0  0  0  0  0  0  0  0  0  0
   20.8123   20.2081   25.2058 H   0  0  0  0  0  0  0  0  0  0  0  0
   21.6901   19.2691   23.9761 H   0  0  0  0  0  0  0  0  0  0  0  0
  1  2  1  0  0  0  0
  1  3  1  0  0  0  0
  1  4  1  0  0  0  0
  1  5  1  0  0  0  0
  5  6  1  0  0  0  0
  5  7  1  0  0  0  0
  5  8  1  0  0  0  0
  8  9  1  0  0  0  0
  8 10  1  0  0  0  0
  8 11  1  0  0  0  0
 11 12  1  0  0  0  0
 11 13  1  0  0  0  0
 11 14  1  0  0  0  0
 14 15  1  0  0  0  0
 14 16  1  0  0  0  0
 14 17  1  0  0  0  0
 17 18  1  0  0  0  0
 17 19  1  0  0  0  0
 17 20  1  0  0  0  0
M  END
> <VConfSearch Rank>
886

> <Conf_Id>
64

> <Delta U+W>
0.707

> <U+W>
-11.070

> <U>
47.077

> <W>
-58.148

> <W(PB)>
-60.054

> <W(SA)>
1.906

> <Valence>
2.039

> <Coulomb>
44.655

> <VdW>
0.383

> <VdW6>
-4.912

> <VdW12>
5.295

> <Bond>
0.159

> <Angle>
0.856

> <Pdih>
1.024

> <Idih>
0.000

> <Tether>
0.000

$$$$
VeraChem MOL file


 20 19  0  0  0  0  0  0  0  0999 V2000     
   20.7890   19.2008   25.1693 N   0  3  0  0  0  0  0  0  0  0  0  0
   21.5042   19.8942   25.4103 H   0  0  0  0  0  0  0  0  0  0  0  0
   19.8784   19.6237   25.3744 H   0  0  0  0  0  0  0  0  0  0  0  0
   20.9055   18.4158   25.8187 H   0  0  0  0  0  0  0  0  0  0  0  0
   20.8951   18.7568   23.7244 C   0  0  0  0  0  0  0  0  0  0  0  0
   20.1262   18.0000   23.5483 H   0  0  0  0  0  0  0  0  0  0  0  0
   21.8745   18.2913   23.5848 H   0  0  0  0  0  0  0  0  0  0  0  0
   20.7239   19.9135   22.7217 C   0  0  0  0  0  0  0  0  0  0  0  0
   19.7448   20.3874   22.8671 H   0  0  0  0  0  0  0  0  0  0  0  0
   21.4743   20.6866   22.9339 H   0  0  0  0  0  0  0  0  0  0  0  0
   20.8787   19.4582   21.2490 C   0  0  0  0  0  0  0  0  0  0  0  0
   21.9065   19.1026   21.0920 H   0  0  0  0  0  0  0  0  0  0  0  0
   20.7574   20.3304   20.5919 H   0  0  0  0  0  0  0  0  0  0  0  0
   19.8932   18.3473   20.8041 C   0  0  0  0  0  0  0  0  0  0  0  0
   20.1042   18.0911   19.7564 H   0  0  0  0  0  0  0  0  0  0  0  0
   20.0713   17.4289   21.3801 H   0  0  0  0  0  0  0  0  0  0  0  0
   18.4082   18.7580   20.9267 C   0  0  0  0  0  0  0  0  0  0  0  0
   18.2084   19.6862   20.3758 H   0  0  0  0  0  0  0  0  0  0  0  0
   17.7578   17.9762   20.5138 H   0  0  0  0  0  0  0  0  0  0  0  0
   18.1174   18.9097   21.9736 H   0  0  0  0  0  0  0  0  0  0  0  0
  1  2  1  0  0  0  0
  1  3  1  0  0  0  0
  1  4  1  0  0  0  0
  1  5  1  0  0  0  0
  5  6  1  0  0  0  0
  5  7  1  0  0  0  0
  5  8  1  0  0  0  0
  8  9  1  0  0  0  0
  8 10  1  0  0  0  0
  8 11  1  0  0  0  0
 11 12  1  0  0  0  0
 11 13  1  0  0  0  0
 11 14  1  0  0  0  0
 14 15  1  0  0  0  0
 14 16  1  0  0  0  0
 14 17  1  0  0  0  0
 17 18  1  0  0  0  0
 17 19  1  0  0  0  0
 17 20  1  0  0  0  0
M  END
> <VConfSearch Rank>
887

> <Conf_Id>
22

> <Delta U+W>
0.731

> <U+W>
-11.047

> <U>
47.078

> <W>
-58.125

> <W(PB)>
-60.031

> <W(SA)>
1.906

> <Valence>
2.039

> <Coulomb>
44.655

> <VdW>
0.383

> <VdW6>
-4.913

> <VdW12>
5.296

> <Bond>
0.159

> <Angle>
0.856

> <Pdih>
1.024

> <Idih>
0.000

> <Tether>
0.000

$$$$
VeraChem MOL file


 20 19  0  0  0  0  0  0  0  0999 V2000     
   22.9173   19.2643   22.6059 N   0  3  0  0  0  0  0  0  0  0  0  0
   23.1226   20.2076   22.2618 H   0  0  0  0  0  0  0  0  0  0  0  0
   23.2806   19.2071   23.5624 H   0  0  0  0  0  0  0  0  0  0  0  0
   23.4709   18.6138   22.0385 H   0  0  0  0  0  0  0  0  0  0  0  0
   21.4366   18.9479   22.5424 C   0  0  0  0  0  0  0  0  0  0  0  0
   21.2941   17.9233   22.8962 H   0  0  0  0  0  0  0  0  0  0  0  0
   21.1311   18.9999   21.4950 H   0  0  0  0  0  0  0  0  0  0  0  0
   20.5767   19.9110   23.3802 C   0  0  0  0  0  0  0  0  0  0  0  0
   20.9725   19.9378   24.4041 H   0  0  0  0  0  0  0  0  0  0  0  0
   20.6761   20.9297   22.9827 H   0  0  0  0  0  0  0  0  0  0  0  0
   19.0780   19.5214   23.4438 C   0  0  0  0  0  0  0  0  0  0  0  0
   18.5852   20.2186   24.1356 H   0  0  0  0  0  0  0  0  0  0  0  0
   18.9641   18.5259   23.8948 H   0  0  0  0  0  0  0  0  0  0  0  0
   18.3289   19.5835   22.0872 C   0  0  0  0  0  0  0  0  0  0  0  0
   17.2699   19.7987   22.2878 H   0  0  0  0  0  0  0  0  0  0  0  0
   18.6988   20.4254   21.4855 H   0  0  0  0  0  0  0  0  0  0  0  0
   18.3978   18.2705   21.2723 C   0  0  0  0  0  0  0  0  0  0  0  0
   19.4177   18.0325   20.9527 H   0  0  0  0  0  0  0  0  0  0  0  0
   18.0177   17.4233   21.8577 H   0  0  0  0  0  0  0  0  0  0  0  0
   17.7821   18.3506   20.3671 H   0  0  0  0  0  0  0  0  0  0  0  0
  1  2  1  0  0  0  0
  1  3  1  0  0  0  0
  1  4  1  0  0  0  0
  1  5  1  0  0  0  0
  5  6  1  0  0  0  0
  5  7  1  0  0  0  0
  5  8  1  0  0  0  0
  8  9  1  0  0  0  0
  8 10  1  0  0  0  0
  8 11  1  0  0  0  0
 11 12  1  0  0  0  0
 11 13  1  0  0  0  0
 11 14  1  0  0  0  0
 14 15  1  0  0  0  0
 14 16  1  0  0  0  0
 14 17  1  0  0  0  0
 17 18  1  0  0  0  0
 17 19  1  0  0  0  0
 17 20  1  0  0  0  0
M  END
> <VConfSearch Rank>
888

> <Conf_Id>
61

> <Delta U+W>
2.669

> <U+W>
-9.108

> <U>
48.916

> <W>
-58.025

> <W(PB)>
-59.935

> <W(SA)>
1.911

> <Valence>
3.785

> <Coulomb>
44.716

> <VdW>
0.415

> <VdW6>
-4.836

> <VdW12>
5.251

> <Bond>
0.175

> <Angle>
1.195

> <Pdih>
2.415

> <Idih>
0.000

> <Tether>
0.000

$$$$
VeraChem MOL file


 20 19  0  0  0  0  0  0  0  0999 V2000     
   22.1126   19.9133   21.6448 N   0  3  0  0  0  0  0  0  0  0  0  0
   22.5438   20.5011   20.9236 H   0  0  0  0  0  0  0  0  0  0  0  0
   22.8776   19.5058   22.1917 H   0  0  0  0  0  0  0  0  0  0  0  0
   21.6421   19.1429   21.1630 H   0  0  0  0  0  0  0  0  0  0  0  0
   21.1570   20.7047   22.5172 C   0  0  0  0  0  0  0  0  0  0  0  0
   20.3982   21.1625   21.8770 H   0  0  0  0  0  0  0  0  0  0  0  0
   21.7385   21.5074   22.9788 H   0  0  0  0  0  0  0  0  0  0  0  0
   20.4758   19.8775   23.6278 C   0  0  0  0  0  0  0  0  0  0  0  0
   21.2063   19.2070   24.0996 H   0  0  0  0  0  0  0  0  0  0  0  0
   20.1558   20.5743   24.4139 H   0  0  0  0  0  0  0  0  0  0  0  0
   19.2297   19.0796   23.1651 C   0  0  0  0  0  0  0  0  0  0  0  0
   18.4851   19.7723   22.7490 H   0  0  0  0  0  0  0  0  0  0  0  0
   18.7642   18.6283   24.0523 H   0  0  0  0  0  0  0  0  0  0  0  0
   19.5280   17.9641   22.1360 C   0  0  0  0  0  0  0  0  0  0  0  0
   19.8528   18.4061   21.1858 H   0  0  0  0  0  0  0  0  0  0  0  0
   20.3484   17.3296   22.4998 H   0  0  0  0  0  0  0  0  0  0  0  0
   18.2849   17.0881   21.8709 C   0  0  0  0  0  0  0  0  0  0  0  0
   18.5104   16.3082   21.1320 H   0  0  0  0  0  0  0  0  0  0  0  0
   17.9469   16.5921   22.7902 H   0  0  0  0  0  0  0  0  0  0  0  0
   17.4533   17.6901   21.4819 H   0  0  0  0  0  0  0  0  0  0  0  0
  1  2  1  0  0  0  0
  1  3  1  0  0  0  0
  1  4  1  0  0  0  0
  1  5  1  0  0  0  0
  5  6  1  0  0  0  0
  5  7  1  0  0  0  0
  5  8  1  0  0  0  0
  8  9  1  0  0  0  0
  8 10  1  0  0  0  0
  8 11  1  0  0  0  0
 11 12  1  0  0  0  0
 11 13  1  0  0  0  0
 11 14  1  0  0  0  0
 14 15  1  0  0  0  0
 14 16  1  0  0  0  0
 14 17  1  0  0  0  0
 17 18  1  0  0  0  0
 17 19  1  0  0  0  0
 17 20  1  0  0  0  0
M  END
> <VConfSearch Rank>
889

> <Conf_Id>
69

> <Delta U+W>
2.811

> <U+W>
-8.967

> <U>
49.216

> <W>
-58.183

> <W(PB)>
-60.064

> <W(SA)>
1.881

> <Valence>
2.929

> <Coulomb>
46.006

> <VdW>
0.281

> <VdW6>
-4.909

> <VdW12>
5.190

> <Bond>
0.156

> <Angle>
0.974

> <Pdih>
1.799

> <Idih>
0.000

> <Tether>
0.000

$$$$
VeraChem MOL file


 20 19  0  0  0  0  0  0  0  0999 V2000     
   19.5398   20.2363   24.3829 N   0  3  0  0  0  0  0  0  0  0  0  0
   19.2414   20.6045   23.4760 H   0  0  0  0  0  0  0  0  0  0  0  0
   18.7328   19.7582   24.7957 H   0  0  0  0  0  0  0  0  0  0  0  0
   19.7456   21.0424   24.9824 H   0  0  0  0  0  0  0  0  0  0  0  0
   20.7357   19.3123   24.2541 C   0  0  0  0  0  0  0  0  0  0  0  0
   20.9907   18.9796   25.2640 H   0  0  0  0  0  0  0  0  0  0  0  0
   21.5802   19.8871   23.8646 H   0  0  0  0  0  0  0  0  0  0  0  0
   20.4905   18.0742   23.3661 C   0  0  0  0  0  0  0  0  0  0  0  0
   21.2180   17.3051   23.6579 H   0  0  0  0  0  0  0  0  0  0  0  0
   19.5011   17.6482   23.5789 H   0  0  0  0  0  0  0  0  0  0  0  0
   20.6538   18.3288   21.8455 C   0  0  0  0  0  0  0  0  0  0  0  0
   20.5724   17.3635   21.3268 H   0  0  0  0  0  0  0  0  0  0  0  0
   21.6683   18.6994   21.6432 H   0  0  0  0  0  0  0  0  0  0  0  0
   19.6178   19.3073   21.2441 C   0  0  0  0  0  0  0  0  0  0  0  0
   18.6027   19.0017   21.5339 H   0  0  0  0  0  0  0  0  0  0  0  0
   19.7809   20.3176   21.6398 H   0  0  0  0  0  0  0  0  0  0  0  0
   19.7140   19.3614   19.7044 C   0  0  0  0  0  0  0  0  0  0  0  0
   19.5177   18.3765   19.2608 H   0  0  0  0  0  0  0  0  0  0  0  0
   18.9796   20.0667   19.2944 H   0  0  0  0  0  0  0  0  0  0  0  0
   20.7113   19.6886   19.3823 H   0  0  0  0  0  0  0  0  0  0  0  0
  1  2  1  0  0  0  0
  1  3  1  0  0  0  0
  1  4  1  0  0  0  0
  1  5  1  0  0  0  0
  5  6  1  0  0  0  0
  5  7  1  0  0  0  0
  5  8  1  0  0  0  0
  8  9  1  0  0  0  0
  8 10  1  0  0  0  0
  8 11  1  0  0  0  0
 11 12  1  0  0  0  0
 11 13  1  0  0  0  0
 11 14  1  0  0  0  0
 14 15  1  0  0  0  0
 14 16  1  0  0  0  0
 14 17  1  0  0  0  0
 17 18  1  0  0  0  0
 17 19  1  0  0  0  0
 17 20  1  0  0  0  0
M  END
> <VConfSearch Rank>
890

> <Conf_Id>
26

> <Delta U+W>
2.809

> <U+W>
-8.969

> <U>
49.216

> <W>
-58.185

> <W(PB)>
-60.088

> <W(SA)>
1.903

> <Valence>
2.929

> <Coulomb>
46.006

> <VdW>
0.281

> <VdW6>
-4.909

> <VdW12>
5.190

> <Bond>
0.156

> <Angle>
0.974

> <Pdih>
1.799

> <Idih>
0.000

> <Tether>
0.000

$$$$
VeraChem MOL file


 20 19  0  0  0  0  0  0  0  0999 V2000     
   22.2323   20.3059   22.0707 N   0  3  0  0  0  0  0  0  0  0  0  0
   22.4423   19.3091   22.1765 H   0  0  0  0  0  0  0  0  0  0  0  0
   22.4536   20.5609   21.1032 H   0  0  0  0  0  0  0  0  0  0  0  0
   22.8877   20.8168   22.6713 H   0  0  0  0  0  0  0  0  0  0  0  0
   20.7895   20.6155   22.4192 C   0  0  0  0  0  0  0  0  0  0  0  0
   20.6457   21.6943   22.3147 H   0  0  0  0  0  0  0  0  0  0  0  0
   20.6291   20.3522   23.4680 H   0  0  0  0  0  0  0  0  0  0  0  0
   19.7658   19.8747   21.5351 C   0  0  0  0  0  0  0  0  0  0  0  0
   18.7567   20.2133   21.8027 H   0  0  0  0  0  0  0  0  0  0  0  0
   19.9135   20.1721   20.4885 H   0  0  0  0  0  0  0  0  0  0  0  0
   19.8419   18.3289   21.6422 C   0  0  0  0  0  0  0  0  0  0  0  0
   20.7944   17.9817   21.2198 H   0  0  0  0  0  0  0  0  0  0  0  0
   19.0590   17.8916   21.0074 H   0  0  0  0  0  0  0  0  0  0  0  0
   19.6967   17.7687   23.0803 C   0  0  0  0  0  0  0  0  0  0  0  0
   19.7871   16.6741   23.0411 H   0  0  0  0  0  0  0  0  0  0  0  0
   20.5265   18.1173   23.7100 H   0  0  0  0  0  0  0  0  0  0  0  0
   18.3508   18.1332   23.7471 C   0  0  0  0  0  0  0  0  0  0  0  0
   17.5035   17.8098   23.1287 H   0  0  0  0  0  0  0  0  0  0  0  0
   18.2600   17.6411   24.7241 H   0  0  0  0  0  0  0  0  0  0  0  0
   18.2630   19.2141   23.9127 H   0  0  0  0  0  0  0  0  0  0  0  0
  1  2  1  0  0  0  0
  1  3  1  0  0  0  0
  1  4  1  0  0  0  0
  1  5  1  0  0  0  0
  5  6  1  0  0  0  0
  5  7  1  0  0  0  0
  5  8  1  0  0  0  0
  8  9  1  0  0  0  0
  8 10  1  0  0  0  0
  8 11  1  0  0  0  0
 11 12  1  0  0  0  0
 11 13  1  0  0  0  0
 11 14  1  0  0  0  0
 14 15  1  0  0  0  0
 14 16  1  0  0  0  0
 14 17  1  0  0  0  0
 17 18  1  0  0  0  0
 17 19  1  0  0  0  0
 17 20  1  0  0  0  0
M  END
> <VConfSearch Rank>
891

> <Conf_Id>
2

> <Delta U+W>
0.994

> <U+W>
-10.784

> <U>
47.562

> <W>
-58.346

> <W(PB)>
-60.221

> <W(SA)>
1.875

> <Valence>
2.149

> <Coulomb>
45.034

> <VdW>
0.378

> <VdW6>
-5.599

> <VdW12>
5.977

> <Bond>
0.185

> <Angle>
0.935

> <Pdih>
1.028

> <Idih>
0.000

> <Tether>
0.000

$$$$
VeraChem MOL file


 20 19  0  0  0  0  0  0  0  0999 V2000     
   22.1607   17.7377   22.7679 N   0  3  0  0  0  0  0  0  0  0  0  0
   22.0797   16.7330   22.5834 H   0  0  0  0  0  0  0  0  0  0  0  0
   22.2497   18.2056   21.8612 H   0  0  0  0  0  0  0  0  0  0  0  0
   23.0450   17.8791   23.2673 H   0  0  0  0  0  0  0  0  0  0  0  0
   20.9773   18.2632   23.5568 C   0  0  0  0  0  0  0  0  0  0  0  0
   21.1412   19.3270   23.7473 H   0  0  0  0  0  0  0  0  0  0  0  0
   20.9622   17.7448   24.5194 H   0  0  0  0  0  0  0  0  0  0  0  0
   19.6224   18.0648   22.8474 C   0  0  0  0  0  0  0  0  0  0  0  0
   19.4523   16.9913   22.6915 H   0  0  0  0  0  0  0  0  0  0  0  0
   18.8201   18.4008   23.5168 H   0  0  0  0  0  0  0  0  0  0  0  0
   19.5089   18.8025   21.4873 C   0  0  0  0  0  0  0  0  0  0  0  0
   18.5048   18.6316   21.0752 H   0  0  0  0  0  0  0  0  0  0  0  0
   20.2053   18.3496   20.7689 H   0  0  0  0  0  0  0  0  0  0  0  0
   19.7750   20.3283   21.5508 C   0  0  0  0  0  0  0  0  0  0  0  0
   20.8084   20.5213   21.8692 H   0  0  0  0  0  0  0  0  0  0  0  0
   19.6900   20.7417   20.5361 H   0  0  0  0  0  0  0  0  0  0  0  0
   18.7966   21.0832   22.4791 C   0  0  0  0  0  0  0  0  0  0  0  0
   18.9245   20.7848   23.5271 H   0  0  0  0  0  0  0  0  0  0  0  0
   18.9689   22.1656   22.4208 H   0  0  0  0  0  0  0  0  0  0  0  0
   17.7542   20.8934   22.1920 H   0  0  0  0  0  0  0  0  0  0  0  0
  1  2  1  0  0  0  0
  1  3  1  0  0  0  0
  1  4  1  0  0  0  0
  1  5  1  0  0  0  0
  5  6  1  0  0  0  0
  5  7  1  0  0  0  0
  5  8  1  0  0  0  0
  8  9  1  0  0  0  0
  8 10  1  0  0  0  0
  8 11  1  0  0  0  0
 11 12  1  0  0  0  0
 11 13  1  0  0  0  0
 11 14  1  0  0  0  0
 14 15  1  0  0  0  0
 14 16  1  0  0  0  0
 14 17  1  0  0  0  0
 17 18  1  0  0  0  0
 17 19  1  0  0  0  0
 17 20  1  0  0  0  0
M  END
> <VConfSearch Rank>
892

> <Conf_Id>
1

> <Delta U+W>
1.032

> <U+W>
-10.746

> <U>
47.562

> <W>
-58.308

> <W(PB)>
-60.184

> <W(SA)>
1.877

> <Valence>
2.149

> <Coulomb>
45.035

> <VdW>
0.378

> <VdW6>
-5.599

> <VdW12>
5.978

> <Bond>
0.185

> <Angle>
0.935

> <Pdih>
1.028

> <Idih>
0.000

> <Tether>
0.000

$$$$
VeraChem MOL file


 20 19  0  0  0  0  0  0  0  0999 V2000     
   19.9371   17.8515   20.5468 N   0  3  0  0  0  0  0  0  0  0  0  0
   19.0610   17.3341   20.4253 H   0  0  0  0  0  0  0  0  0  0  0  0
   19.7440   18.8314   20.3206 H   0  0  0  0  0  0  0  0  0  0  0  0
   20.5898   17.5034   19.8368 H   0  0  0  0  0  0  0  0  0  0  0  0
   20.4947   17.6960   21.9485 C   0  0  0  0  0  0  0  0  0  0  0  0
   21.4373   18.2433   21.9980 H   0  0  0  0  0  0  0  0  0  0  0  0
   20.7138   16.6354   22.0989 H   0  0  0  0  0  0  0  0  0  0  0  0
   19.5353   18.1766   23.0581 C   0  0  0  0  0  0  0  0  0  0  0  0
   18.5990   17.6102   22.9674 H   0  0  0  0  0  0  0  0  0  0  0  0
   19.9523   17.9123   24.0389 H   0  0  0  0  0  0  0  0  0  0  0  0
   19.2095   19.6941   23.0229 C   0  0  0  0  0  0  0  0  0  0  0  0
   18.2510   19.8444   23.5389 H   0  0  0  0  0  0  0  0  0  0  0  0
   19.0417   20.0305   21.9917 H   0  0  0  0  0  0  0  0  0  0  0  0
   20.2552   20.6066   23.7141 C   0  0  0  0  0  0  0  0  0  0  0  0
   19.8721   21.6367   23.7064 H   0  0  0  0  0  0  0  0  0  0  0  0
   20.3491   20.3269   24.7728 H   0  0  0  0  0  0  0  0  0  0  0  0
   21.6521   20.5981   23.0549 C   0  0  0  0  0  0  0  0  0  0  0  0
   21.5832   20.7615   21.9717 H   0  0  0  0  0  0  0  0  0  0  0  0
   22.2773   21.3966   23.4750 H   0  0  0  0  0  0  0  0  0  0  0  0
   22.1738   19.6510   23.2362 H   0  0  0  0  0  0  0  0  0  0  0  0
  1  2  1  0  0  0  0
  1  3  1  0  0  0  0
  1  4  1  0  0  0  0
  1  5  1  0  0  0  0
  5  6  1  0  0  0  0
  5  7  1  0  0  0  0
  5  8  1  0  0  0  0
  8  9  1  0  0  0  0
  8 10  1  0  0  0  0
  8 11  1  0  0  0  0
 11 12  1  0  0  0  0
 11 13  1  0  0  0  0
 11 14  1  0  0  0  0
 14 15  1  0  0  0  0
 14 16  1  0  0  0  0
 14 17  1  0  0  0  0
 17 18  1  0  0  0  0
 17 19  1  0  0  0  0
 17 20  1  0  0  0  0
M  END
> <VConfSearch Rank>
893

> <Conf_Id>
80

> <Delta U+W>
2.920

> <U+W>
-8.857

> <U>
49.434

> <W>
-58.292

> <W(PB)>
-60.170

> <W(SA)>
1.879

> <Valence>
3.798

> <Coulomb>
45.253

> <VdW>
0.384

> <VdW6>
-5.595

> <VdW12>
5.979

> <Bond>
0.198

> <Angle>
1.368

> <Pdih>
2.231

> <Idih>
0.000

> <Tether>
0.000

$$$$
VeraChem MOL file


 20 19  0  0  0  0  0  0  0  0999 V2000     
   18.3675   18.2470   21.3943 N   0  3  0  0  0  0  0  0  0  0  0  0
   17.6470   17.7803   21.9539 H   0  0  0  0  0  0  0  0  0  0  0  0
   17.9828   18.3640   20.4510 H   0  0  0  0  0  0  0  0  0  0  0  0
   19.1572   17.5997   21.3168 H   0  0  0  0  0  0  0  0  0  0  0  0
   18.7830   19.5731   22.0014 C   0  0  0  0  0  0  0  0  0  0  0  0
   17.9017   20.2202   22.0113 H   0  0  0  0  0  0  0  0  0  0  0  0
   19.5247   20.0268   21.3423 H   0  0  0  0  0  0  0  0  0  0  0  0
   19.3398   19.4549   23.4362 C   0  0  0  0  0  0  0  0  0  0  0  0
   19.4935   20.4600   23.8505 H   0  0  0  0  0  0  0  0  0  0  0  0
   18.5692   18.9865   24.0628 H   0  0  0  0  0  0  0  0  0  0  0  0
   20.6526   18.6351   23.5583 C   0  0  0  0  0  0  0  0  0  0  0  0
   20.6084   17.7369   22.9290 H   0  0  0  0  0  0  0  0  0  0  0  0
   20.7235   18.2654   24.5906 H   0  0  0  0  0  0  0  0  0  0  0  0
   21.9516   19.4274   23.2601 C   0  0  0  0  0  0  0  0  0  0  0  0
   22.0391   20.2720   23.9578 H   0  0  0  0  0  0  0  0  0  0  0  0
   22.8096   18.7728   23.4686 H   0  0  0  0  0  0  0  0  0  0  0  0
   22.0709   19.9449   21.8096 C   0  0  0  0  0  0  0  0  0  0  0  0
   21.3752   20.7712   21.6218 H   0  0  0  0  0  0  0  0  0  0  0  0
   23.0831   20.3262   21.6224 H   0  0  0  0  0  0  0  0  0  0  0  0
   21.8743   19.1458   21.0833 H   0  0  0  0  0  0  0  0  0  0  0  0
  1  2  1  0  0  0  0
  1  3  1  0  0  0  0
  1  4  1  0  0  0  0
  1  5  1  0  0  0  0
  5  6  1  0  0  0  0
  5  7  1  0  0  0  0
  5  8  1  0  0  0  0
  8  9  1  0  0  0  0
  8 10  1  0  0  0  0
  8 11  1  0  0  0  0
 11 12  1  0  0  0  0
 11 13  1  0  0  0  0
 11 14  1  0  0  0  0
 14 15  1  0  0  0  0
 14 16  1  0  0  0  0
 14 17  1  0  0  0  0
 17 18  1  0  0  0  0
 17 19  1  0  0  0  0
 17 20  1  0  0  0  0
M  END
> <VConfSearch Rank>
894

> <Conf_Id>
65

> <Delta U+W>
2.949

> <U+W>
-8.829

> <U>
49.435

> <W>
-58.263

> <W(PB)>
-60.125

> <W(SA)>
1.862

> <Valence>
3.797

> <Coulomb>
45.253

> <VdW>
0.384

> <VdW6>
-5.596

> <VdW12>
5.980

> <Bond>
0.198

> <Angle>
1.369

> <Pdih>
2.230

> <Idih>
0.000

> <Tether>
0.000

$$$$
VeraChem MOL file


 20 19  0  0  0  0  0  0  0  0999 V2000     
   20.1276   17.3918   23.1687 N   0  3  0  0  0  0  0  0  0  0  0  0
   20.1208   16.9324   24.0856 H   0  0  0  0  0  0  0  0  0  0  0  0
   19.2636   17.9374   23.0935 H   0  0  0  0  0  0  0  0  0  0  0  0
   20.0821   16.6498   22.4633 H   0  0  0  0  0  0  0  0  0  0  0  0
   21.3522   18.2674   22.9860 C   0  0  0  0  0  0  0  0  0  0  0  0
   22.2263   17.6169   23.0772 H   0  0  0  0  0  0  0  0  0  0  0  0
   21.3861   18.9971   23.7994 H   0  0  0  0  0  0  0  0  0  0  0  0
   21.4054   18.9946   21.6271 C   0  0  0  0  0  0  0  0  0  0  0  0
   22.4558   19.2396   21.4209 H   0  0  0  0  0  0  0  0  0  0  0  0
   21.0963   18.3096   20.8265 H   0  0  0  0  0  0  0  0  0  0  0  0
   20.5882   20.3122   21.5497 C   0  0  0  0  0  0  0  0  0  0  0  0
   20.7598   20.7468   20.5551 H   0  0  0  0  0  0  0  0  0  0  0  0
   20.9905   21.0449   22.2630 H   0  0  0  0  0  0  0  0  0  0  0  0
   19.0586   20.1603   21.7492 C   0  0  0  0  0  0  0  0  0  0  0  0
   18.5473   20.8822   21.0967 H   0  0  0  0  0  0  0  0  0  0  0  0
   18.7236   19.1699   21.4127 H   0  0  0  0  0  0  0  0  0  0  0  0
   18.6052   20.4337   23.2030 C   0  0  0  0  0  0  0  0  0  0  0  0
   19.1240   19.8003   23.9304 H   0  0  0  0  0  0  0  0  0  0  0  0
   18.8012   21.4783   23.4782 H   0  0  0  0  0  0  0  0  0  0  0  0
   17.5265   20.2609   23.3108 H   0  0  0  0  0  0  0  0  0  0  0  0
  1  2  1  0  0  0  0
  1  3  1  0  0  0  0
  1  4  1  0  0  0  0
  1  5  1  0  0  0  0
  5  6  1  0  0  0  0
  5  7  1  0  0  0  0
  5  8  1  0  0  0  0
  8  9  1  0  0  0  0
  8 10  1  0  0  0  0
  8 11  1  0  0  0  0
 11 12  1  0  0  0  0
 11 13  1  0  0  0  0
 11 14  1  0  0  0  0
 14 15  1  0  0  0  0
 14 16  1  0  0  0  0
 14 17  1  0  0  0  0
 17 18  1  0  0  0  0
 17 19  1  0  0  0  0
 17 20  1  0  0  0  0
M  END
> <VConfSearch Rank>
895

> <Conf_Id>
77

> <Delta U+W>
5.366

> <U+W>
-6.412

> <U>
51.542

> <W>
-57.954

> <W(PB)>
-59.811

> <W(SA)>
1.857

> <Valence>
5.347

> <Coulomb>
45.870

> <VdW>
0.325

> <VdW6>
-6.161

> <VdW12>
6.486

> <Bond>
0.201

> <Angle>
1.484

> <Pdih>
3.662

> <Idih>
0.000

> <Tether>
0.000

$$$$
VeraChem MOL file


 20 19  0  0  0  0  0  0  0  0999 V2000     
   20.0115   17.1847   21.7880 N   0  3  0  0  0  0  0  0  0  0  0  0
   19.5199   17.0933   20.8934 H   0  0  0  0  0  0  0  0  0  0  0  0
   20.8566   17.7380   21.6164 H   0  0  0  0  0  0  0  0  0  0  0  0
   20.3121   16.2430   22.0607 H   0  0  0  0  0  0  0  0  0  0  0  0
   19.1365   17.8260   22.8476 C   0  0  0  0  0  0  0  0  0  0  0  0
   19.6840   17.8391   23.7938 H   0  0  0  0  0  0  0  0  0  0  0  0
   18.2611   17.1826   22.9712 H   0  0  0  0  0  0  0  0  0  0  0  0
   18.6673   19.2519   22.4940 C   0  0  0  0  0  0  0  0  0  0  0  0
   18.3702   19.2943   21.4377 H   0  0  0  0  0  0  0  0  0  0  0  0
   17.7540   19.4547   23.0690 H   0  0  0  0  0  0  0  0  0  0  0  0
   19.6855   20.3804   22.8095 C   0  0  0  0  0  0  0  0  0  0  0  0
   19.8769   20.4206   23.8908 H   0  0  0  0  0  0  0  0  0  0  0  0
   19.2032   21.3362   22.5616 H   0  0  0  0  0  0  0  0  0  0  0  0
   21.0257   20.3045   22.0345 C   0  0  0  0  0  0  0  0  0  0  0  0
   20.8797   19.8179   21.0608 H   0  0  0  0  0  0  0  0  0  0  0  0
   21.3565   21.3276   21.8066 H   0  0  0  0  0  0  0  0  0  0  0  0
   22.1528   19.6112   22.8363 C   0  0  0  0  0  0  0  0  0  0  0  0
   23.0648   19.5299   22.2307 H   0  0  0  0  0  0  0  0  0  0  0  0
   22.4029   20.1935   23.7328 H   0  0  0  0  0  0  0  0  0  0  0  0
   21.8747   18.6046   23.1664 H   0  0  0  0  0  0  0  0  0  0  0  0
  1  2  1  0  0  0  0
  1  3  1  0  0  0  0
  1  4  1  0  0  0  0
  1  5  1  0  0  0  0
  5  6  1  0  0  0  0
  5  7  1  0  0  0  0
  5  8  1  0  0  0  0
  8  9  1  0  0  0  0
  8 10  1  0  0  0  0
  8 11  1  0  0  0  0
 11 12  1  0  0  0  0
 11 13  1  0  0  0  0
 11 14  1  0  0  0  0
 14 15  1  0  0  0  0
 14 16  1  0  0  0  0
 14 17  1  0  0  0  0
 17 18  1  0  0  0  0
 17 19  1  0  0  0  0
 17 20  1  0  0  0  0
M  END
> <VConfSearch Rank>
896

> <Conf_Id>
67

> <Delta U+W>
5.353

> <U+W>
-6.425

> <U>
51.541

> <W>
-57.966

> <W(PB)>
-59.821

> <W(SA)>
1.855

> <Valence>
5.347

> <Coulomb>
45.870

> <VdW>
0.325

> <VdW6>
-6.161

> <VdW12>
6.486

> <Bond>
0.201

> <Angle>
1.485

> <Pdih>
3.662

> <Idih>
0.000

> <Tether>
0.000

$$$$
VeraChem MOL file


 20 19  0  0  0  0  0  0  0  0999 V2000     
   17.2392   19.8908   23.5962 N   0  3  0  0  0  0  0  0  0  0  0  0
   17.4974   20.0182   24.5798 H   0  0  0  0  0  0  0  0  0  0  0  0
   16.5072   20.5786   23.3897 H   0  0  0  0  0  0  0  0  0  0  0  0
   16.8077   18.9646   23.5156 H   0  0  0  0  0  0  0  0  0  0  0  0
   18.4314   20.0428   22.6731 C   0  0  0  0  0  0  0  0  0  0  0  0
   18.8204   21.0581   22.7887 H   0  0  0  0  0  0  0  0  0  0  0  0
   18.0791   19.9254   21.6447 H   0  0  0  0  0  0  0  0  0  0  0  0
   19.5499   19.0242   22.9569 C   0  0  0  0  0  0  0  0  0  0  0  0
   19.8896   19.1350   23.9953 H   0  0  0  0  0  0  0  0  0  0  0  0
   19.1508   18.0062   22.8553 H   0  0  0  0  0  0  0  0  0  0  0  0
   20.7446   19.2131   21.9957 C   0  0  0  0  0  0  0  0  0  0  0  0
   21.1381   20.2343   22.0962 H   0  0  0  0  0  0  0  0  0  0  0  0
   20.4002   19.1067   20.9575 H   0  0  0  0  0  0  0  0  0  0  0  0
   21.8742   18.1955   22.2714 C   0  0  0  0  0  0  0  0  0  0  0  0
   22.2231   18.2999   23.3084 H   0  0  0  0  0  0  0  0  0  0  0  0
   21.4854   17.1725   22.1698 H   0  0  0  0  0  0  0  0  0  0  0  0
   23.0656   18.3881   21.3089 C   0  0  0  0  0  0  0  0  0  0  0  0
   23.4984   19.3917   21.4118 H   0  0  0  0  0  0  0  0  0  0  0  0
   23.8568   17.6571   21.5201 H   0  0  0  0  0  0  0  0  0  0  0  0
   22.7549   18.2553   20.2643 H   0  0  0  0  0  0  0  0  0  0  0  0
  1  2  1  0  0  0  0
  1  3  1  0  0  0  0
  1  4  1  0  0  0  0
  1  5  1  0  0  0  0
  5  6  1  0  0  0  0
  5  7  1  0  0  0  0
  5  8  1  0  0  0  0
  8  9  1  0  0  0  0
  8 10  1  0  0  0  0
  8 11  1  0  0  0  0
 11 12  1  0  0  0  0
 11 13  1  0  0  0  0
 11 14  1  0  0  0  0
 14 15  1  0  0  0  0
 14 16  1  0  0  0  0
 14 17  1  0  0  0  0
 17 18  1  0  0  0  0
 17 19  1  0  0  0  0
 17 20  1  0  0  0  0
M  END
> <VConfSearch Rank>
897

> <Conf_Id>
72

> <Delta U+W>
0.000

> <U+W>
-11.778

> <U>
45.772

> <W>
-57.550

> <W(PB)>
-59.511

> <W(SA)>
1.961

> <Valence>
1.299

> <Coulomb>
44.177

> <VdW>
0.297

> <VdW6>
-3.490

> <VdW12>
3.786

> <Bond>
0.096

> <Angle>
0.381

> <Pdih>
0.822

> <Idih>
0.000

> <Tether>
0.000

$$$$
VeraChem MOL file


 20 19  0  0  0  0  0  0  0  0999 V2000     
   17.8366   17.3240   21.8052 N   0  3  0  0  0  0  0  0  0  0  0  0
   17.4048   17.4777   22.7219 H   0  0  0  0  0  0  0  0  0  0  0  0
   17.3546   17.9355   21.1388 H   0  0  0  0  0  0  0  0  0  0  0  0
   17.6207   16.3592   21.5331 H   0  0  0  0  0  0  0  0  0  0  0  0
   19.3299   17.5806   21.8320 C   0  0  0  0  0  0  0  0  0  0  0  0
   19.7265   17.3688   20.8353 H   0  0  0  0  0  0  0  0  0  0  0  0
   19.7807   16.8774   22.5374 H   0  0  0  0  0  0  0  0  0  0  0  0
   19.6892   19.0216   22.2367 C   0  0  0  0  0  0  0  0  0  0  0  0
   19.2214   19.7250   21.5351 H   0  0  0  0  0  0  0  0  0  0  0  0
   19.2714   19.2289   23.2299 H   0  0  0  0  0  0  0  0  0  0  0  0
   21.2208   19.2388   22.2483 C   0  0  0  0  0  0  0  0  0  0  0  0
   21.6300   18.9532   21.2691 H   0  0  0  0  0  0  0  0  0  0  0  0
   21.6844   18.5670   22.9841 H   0  0  0  0  0  0  0  0  0  0  0  0
   21.6355   20.6999   22.5481 C   0  0  0  0  0  0  0  0  0  0  0  0
   22.7250   20.7878   22.4338 H   0  0  0  0  0  0  0  0  0  0  0  0
   21.1933   21.3729   21.8001 H   0  0  0  0  0  0  0  0  0  0  0  0
   21.2441   21.1712   23.9673 C   0  0  0  0  0  0  0  0  0  0  0  0
   21.6507   20.4983   24.7334 H   0  0  0  0  0  0  0  0  0  0  0  0
   21.6394   22.1769   24.1607 H   0  0  0  0  0  0  0  0  0  0  0  0
   20.1551   21.2163   24.0917 H   0  0  0  0  0  0  0  0  0  0  0  0
  1  2  1  0  0  0  0
  1  3  1  0  0  0  0
  1  4  1  0  0  0  0
  1  5  1  0  0  0  0
  5  6  1  0  0  0  0
  5  7  1  0  0  0  0
  5  8  1  0  0  0  0
  8  9  1  0  0  0  0
  8 10  1  0  0  0  0
  8 11  1  0  0  0  0
 11 12  1  0  0  0  0
 11 13  1  0  0  0  0
 11 14  1  0  0  0  0
 14 15  1  0  0  0  0
 14 16  1  0  0  0  0
 14 17  1  0  0  0  0
 17 18  1  0  0  0  0
 17 19  1  0  0  0  0
 17 20  1  0  0  0  0
M  END
> <VConfSearch Rank>
898

> <Conf_Id>
42

> <Delta U+W>
0.508

> <U+W>
-11.270

> <U>
46.486

> <W>
-57.756

> <W(PB)>
-59.705

> <W(SA)>
1.949

> <Valence>
1.806

> <Coulomb>
44.248

> <VdW>
0.433

> <VdW6>
-4.089

> <VdW12>
4.522

> <Bond>
0.131

> <Angle>
0.628

> <Pdih>
1.047

> <Idih>
0.000

> <Tether>
0.000

$$$$
VeraChem MOL file


 20 19  0  0  0  0  0  0  0  0999 V2000     
   20.0407   21.2566   20.4395 N   0  3  0  0  0  0  0  0  0  0  0  0
   19.3035   20.8562   19.8507 H   0  0  0  0  0  0  0  0  0  0  0  0
   19.5844   21.8855   21.1077 H   0  0  0  0  0  0  0  0  0  0  0  0
   20.6226   21.8415   19.8305 H   0  0  0  0  0  0  0  0  0  0  0  0
   20.8548   20.1844   21.1354 C   0  0  0  0  0  0  0  0  0  0  0  0
   21.6365   20.6791   21.7182 H   0  0  0  0  0  0  0  0  0  0  0  0
   21.3349   19.5730   20.3665 H   0  0  0  0  0  0  0  0  0  0  0  0
   20.0107   19.2870   22.0582 C   0  0  0  0  0  0  0  0  0  0  0  0
   19.5199   19.9127   22.8143 H   0  0  0  0  0  0  0  0  0  0  0  0
   19.2173   18.8047   21.4719 H   0  0  0  0  0  0  0  0  0  0  0  0
   20.8805   18.2075   22.7446 C   0  0  0  0  0  0  0  0  0  0  0  0
   21.6459   18.6902   23.3681 H   0  0  0  0  0  0  0  0  0  0  0  0
   21.4225   17.6415   21.9741 H   0  0  0  0  0  0  0  0  0  0  0  0
   20.0649   17.2116   23.6046 C   0  0  0  0  0  0  0  0  0  0  0  0
   19.3137   16.7089   22.9795 H   0  0  0  0  0  0  0  0  0  0  0  0
   20.7398   16.4234   23.9668 H   0  0  0  0  0  0  0  0  0  0  0  0
   19.3729   17.8715   24.8192 C   0  0  0  0  0  0  0  0  0  0  0  0
   18.5996   18.5836   24.5055 H   0  0  0  0  0  0  0  0  0  0  0  0
   18.8862   17.1112   25.4438 H   0  0  0  0  0  0  0  0  0  0  0  0
   20.0990   18.4053   25.4459 H   0  0  0  0  0  0  0  0  0  0  0  0
  1  2  1  0  0  0  0
  1  3  1  0  0  0  0
  1  4  1  0  0  0  0
  1  5  1  0  0  0  0
  5  6  1  0  0  0  0
  5  7  1  0  0  0  0
  5  8  1  0  0  0  0
  8  9  1  0  0  0  0
  8 10  1  0  0  0  0
  8 11  1  0  0  0  0
 11 12  1  0  0  0  0
 11 13  1  0  0  0  0
 11 14  1  0  0  0  0
 14 15  1  0  0  0  0
 14 16  1  0  0  0  0
 14 17  1  0  0  0  0
 17 18  1  0  0  0  0
 17 19  1  0  0  0  0
 17 20  1  0  0  0  0
M  END
> <VConfSearch Rank>
899

> <Conf_Id>
41

> <Delta U+W>
0.515

> <U+W>
-11.263

> <U>
46.486

> <W>
-57.749

> <W(PB)>
-59.685

> <W(SA)>
1.936

> <Valence>
1.806

> <Coulomb>
44.248

> <VdW>
0.433

> <VdW6>
-4.089

> <VdW12>
4.522

> <Bond>
0.131

> <Angle>
0.628

> <Pdih>
1.047

> <Idih>
0.000

> <Tether>
0.000

$$$$
VeraChem MOL file


 20 19  0  0  0  0  0  0  0  0999 V2000     
   21.6776   17.8534   20.5433 N   0  3  0  0  0  0  0  0  0  0  0  0
   21.7829   17.1972   19.7624 H   0  0  0  0  0  0  0  0  0  0  0  0
   21.5349   18.7819   20.1353 H   0  0  0  0  0  0  0  0  0  0  0  0
   22.5751   17.8744   21.0375 H   0  0  0  0  0  0  0  0  0  0  0  0
   20.5367   17.4577   21.4608 C   0  0  0  0  0  0  0  0  0  0  0  0
   20.7377   16.4448   21.8202 H   0  0  0  0  0  0  0  0  0  0  0  0
   19.6177   17.4320   20.8691 H   0  0  0  0  0  0  0  0  0  0  0  0
   20.3504   18.3985   22.6676 C   0  0  0  0  0  0  0  0  0  0  0  0
   19.5868   17.9611   23.3228 H   0  0  0  0  0  0  0  0  0  0  0  0
   21.2804   18.4358   23.2501 H   0  0  0  0  0  0  0  0  0  0  0  0
   19.9259   19.8294   22.2511 C   0  0  0  0  0  0  0  0  0  0  0  0
   18.9830   19.7863   21.6884 H   0  0  0  0  0  0  0  0  0  0  0  0
   20.6753   20.2482   21.5665 H   0  0  0  0  0  0  0  0  0  0  0  0
   19.7696   20.7990   23.4479 C   0  0  0  0  0  0  0  0  0  0  0  0
   20.7146   20.8561   24.0062 H   0  0  0  0  0  0  0  0  0  0  0  0
   19.5813   21.8098   23.0598 H   0  0  0  0  0  0  0  0  0  0  0  0
   18.6207   20.4138   24.4079 C   0  0  0  0  0  0  0  0  0  0  0  0
   18.8222   19.4644   24.9191 H   0  0  0  0  0  0  0  0  0  0  0  0
   18.4923   21.1826   25.1808 H   0  0  0  0  0  0  0  0  0  0  0  0
   17.6695   20.3194   23.8681 H   0  0  0  0  0  0  0  0  0  0  0  0
  1  2  1  0  0  0  0
  1  3  1  0  0  0  0
  1  4  1  0  0  0  0
  1  5  1  0  0  0  0
  5  6  1  0  0  0  0
  5  7  1  0  0  0  0
  5  8  1  0  0  0  0
  8  9  1  0  0  0  0
  8 10  1  0  0  0  0
  8 11  1  0  0  0  0
 11 12  1  0  0  0  0
 11 13  1  0  0  0  0
 11 14  1  0  0  0  0
 14 15  1  0  0  0  0
 14 16  1  0  0  0  0
 14 17  1  0  0  0  0
 17 18  1  0  0  0  0
 17 19  1  0  0  0  0
 17 20  1  0  0  0  0
M  END
> <VConfSearch Rank>
900

> <Conf_Id>
33

> <Delta U+W>
0.703

> <U+W>
-11.075

> <U>
47.080

> <W>
-58.154

> <W(PB)>
-60.053

> <W(SA)>
1.899

> <Valence>
1.943

> <Coulomb>
44.572

> <VdW>
0.565

> <VdW6>
-4.575

> <VdW12>
5.139

> <Bond>
0.158

> <Angle>
0.700

> <Pdih>
1.085

> <Idih>
0.000

> <Tether>
0.000

$$$$
VeraChem MOL file


 20 19  0  0  0  0  0  0  0  0999 V2000     
   22.0303   20.0653   24.2589 N   0  3  0  0  0  0  0  0  0  0  0  0
   22.9964   20.1492   24.5922 H   0  0  0  0  0  0  0  0  0  0  0  0
   21.5406   20.9178   24.5481 H   0  0  0  0  0  0  0  0  0  0  0  0
   21.6060   19.2848   24.7684 H   0  0  0  0  0  0  0  0  0  0  0  0
   21.9690   19.8603   22.7574 C   0  0  0  0  0  0  0  0  0  0  0  0
   22.5272   18.9519   22.5152 H   0  0  0  0  0  0  0  0  0  0  0  0
   22.4772   20.7067   22.2874 H   0  0  0  0  0  0  0  0  0  0  0  0
   20.5362   19.7530   22.1995 C   0  0  0  0  0  0  0  0  0  0  0  0
   19.9729   20.6590   22.4594 H   0  0  0  0  0  0  0  0  0  0  0  0
   20.6005   19.7264   21.1047 H   0  0  0  0  0  0  0  0  0  0  0  0
   19.7874   18.4964   22.7108 C   0  0  0  0  0  0  0  0  0  0  0  0
   19.7578   18.5098   23.8083 H   0  0  0  0  0  0  0  0  0  0  0  0
   20.3450   17.5929   22.4276 H   0  0  0  0  0  0  0  0  0  0  0  0
   18.3333   18.3906   22.1898 C   0  0  0  0  0  0  0  0  0  0  0  0
   17.8423   17.5419   22.6863 H   0  0  0  0  0  0  0  0  0  0  0  0
   17.7673   19.2861   22.4823 H   0  0  0  0  0  0  0  0  0  0  0  0
   18.2393   18.1926   20.6595 C   0  0  0  0  0  0  0  0  0  0  0  0
   18.8233   17.3209   20.3371 H   0  0  0  0  0  0  0  0  0  0  0  0
   17.1970   18.0280   20.3571 H   0  0  0  0  0  0  0  0  0  0  0  0
   18.6043   19.0721   20.1150 H   0  0  0  0  0  0  0  0  0  0  0  0
  1  2  1  0  0  0  0
  1  3  1  0  0  0  0
  1  4  1  0  0  0  0
  1  5  1  0  0  0  0
  5  6  1  0  0  0  0
  5  7  1  0  0  0  0
  5  8  1  0  0  0  0
  8  9  1  0  0  0  0
  8 10  1  0  0  0  0
  8 11  1  0  0  0  0
 11 12  1  0  0  0  0
 11 13  1  0  0  0  0
 11 14  1  0  0  0  0
 14 15  1  0  0  0  0
 14 16  1  0  0  0  0
 14 17  1  0  0  0  0
 17 18  1  0  0  0  0
 17 19  1  0  0  0  0
 17 20  1  0  0  0  0
M  END
> <VConfSearch Rank>
901

> <Conf_Id>
24

> <Delta U+W>
0.847

> <U+W>
-10.931

> <U>
47.080

> <W>
-58.011

> <W(PB)>
-59.914

> <W(SA)>
1.903

> <Valence>
1.943

> <Coulomb>
44.572

> <VdW>
0.565

> <VdW6>
-4.575

> <VdW12>
5.140

> <Bond>
0.158

> <Angle>
0.700

> <Pdih>
1.085

> <Idih>
0.000

> <Tether>
0.000

$$$$
VeraChem MOL file


 20 19  0  0  0  0  0  0  0  0999 V2000     
   22.6661   18.2717   21.9920 N   0  3  0  0  0  0  0  0  0  0  0  0
   23.5069   18.4294   22.5575 H   0  0  0  0  0  0  0  0  0  0  0  0
   22.3705   17.3052   22.1619 H   0  0  0  0  0  0  0  0  0  0  0  0
   22.9533   18.3306   21.0100 H   0  0  0  0  0  0  0  0  0  0  0  0
   21.5708   19.2655   22.3222 C   0  0  0  0  0  0  0  0  0  0  0  0
   21.9626   20.2710   22.1468 H   0  0  0  0  0  0  0  0  0  0  0  0
   21.3381   19.1677   23.3858 H   0  0  0  0  0  0  0  0  0  0  0  0
   20.2919   19.0555   21.4897 C   0  0  0  0  0  0  0  0  0  0  0  0
   20.5444   19.1144   20.4227 H   0  0  0  0  0  0  0  0  0  0  0  0
   19.9029   18.0432   21.6581 H   0  0  0  0  0  0  0  0  0  0  0  0
   19.1946   20.1036   21.8018 C   0  0  0  0  0  0  0  0  0  0  0  0
   18.3199   19.9031   21.1679 H   0  0  0  0  0  0  0  0  0  0  0  0
   19.5581   21.0983   21.5089 H   0  0  0  0  0  0  0  0  0  0  0  0
   18.7452   20.1536   23.2847 C   0  0  0  0  0  0  0  0  0  0  0  0
   19.5842   20.4570   23.9256 H   0  0  0  0  0  0  0  0  0  0  0  0
   17.9840   20.9388   23.3936 H   0  0  0  0  0  0  0  0  0  0  0  0
   18.1584   18.8176   23.7943 C   0  0  0  0  0  0  0  0  0  0  0  0
   17.7713   18.9322   24.8151 H   0  0  0  0  0  0  0  0  0  0  0  0
   17.3300   18.4815   23.1573 H   0  0  0  0  0  0  0  0  0  0  0  0
   18.9182   18.0265   23.8169 H   0  0  0  0  0  0  0  0  0  0  0  0
  1  2  1  0  0  0  0
  1  3  1  0  0  0  0
  1  4  1  0  0  0  0
  1  5  1  0  0  0  0
  5  6  1  0  0  0  0
  5  7  1  0  0  0  0
  5  8  1  0  0  0  0
  8  9  1  0  0  0  0
  8 10  1  0  0  0  0
  8 11  1  0  0  0  0
 11 12  1  0  0  0  0
 11 13  1  0  0  0  0
 11 14  1  0  0  0  0
 14 15  1  0  0  0  0
 14 16  1  0  0  0  0
 14 17  1  0  0  0  0
 17 18  1  0  0  0  0
 17 19  1  0  0  0  0
 17 20  1  0  0  0  0
M  END
> <VConfSearch Rank>
902

> <Conf_Id>
64

> <Delta U+W>
0.707

> <U+W>
-11.070

> <U>
47.077

> <W>
-58.148

> <W(PB)>
-60.054

> <W(SA)>
1.906

> <Valence>
2.039

> <Coulomb>
44.655

> <VdW>
0.383

> <VdW6>
-4.912

> <VdW12>
5.295

> <Bond>
0.159

> <Angle>
0.856

> <Pdih>
1.024

> <Idih>
0.000

> <Tether>
0.000

$$$$
VeraChem MOL file


 20 19  0  0  0  0  0  0  0  0999 V2000     
   20.9968   16.6462   23.5229 N   0  3  0  0  0  0  0  0  0  0  0  0
   21.3003   16.6832   24.5011 H   0  0  0  0  0  0  0  0  0  0  0  0
   20.0331   16.2976   23.5195 H   0  0  0  0  0  0  0  0  0  0  0  0
   21.5722   15.9347   23.0601 H   0  0  0  0  0  0  0  0  0  0  0  0
   21.1138   17.9951   22.8425 C   0  0  0  0  0  0  0  0  0  0  0  0
   20.8043   17.8739   21.8011 H   0  0  0  0  0  0  0  0  0  0  0  0
   22.1663   18.2906   22.8564 H   0  0  0  0  0  0  0  0  0  0  0  0
   20.2602   19.0876   23.5136 C   0  0  0  0  0  0  0  0  0  0  0  0
   19.2045   18.7877   23.5084 H   0  0  0  0  0  0  0  0  0  0  0  0
   20.5506   19.1721   24.5692 H   0  0  0  0  0  0  0  0  0  0  0  0
   20.4210   20.4729   22.8390 C   0  0  0  0  0  0  0  0  0  0  0  0
   21.4584   20.8126   22.9650 H   0  0  0  0  0  0  0  0  0  0  0  0
   19.7973   21.2034   23.3725 H   0  0  0  0  0  0  0  0  0  0  0  0
   20.0646   20.5077   21.3307 C   0  0  0  0  0  0  0  0  0  0  0  0
   20.2321   21.5267   20.9547 H   0  0  0  0  0  0  0  0  0  0  0  0
   20.7490   19.8617   20.7640 H   0  0  0  0  0  0  0  0  0  0  0  0
   18.6027   20.1021   21.0351 C   0  0  0  0  0  0  0  0  0  0  0  0
   17.8982   20.7204   21.6064 H   0  0  0  0  0  0  0  0  0  0  0  0
   18.3756   20.2327   19.9692 H   0  0  0  0  0  0  0  0  0  0  0  0
   18.4183   19.0499   21.2849 H   0  0  0  0  0  0  0  0  0  0  0  0
  1  2  1  0  0  0  0
  1  3  1  0  0  0  0
  1  4  1  0  0  0  0
  1  5  1  0  0  0  0
  5  6  1  0  0  0  0
  5  7  1  0  0  0  0
  5  8  1  0  0  0  0
  8  9  1  0  0  0  0
  8 10  1  0  0  0  0
  8 11  1  0  0  0  0
 11 12  1  0  0  0  0
 11 13  1  0  0  0  0
 11 14  1  0  0  0  0
 14 15  1  0  0  0  0
 14 16  1  0  0  0  0
 14 17  1  0  0  0  0
 17 18  1  0  0  0  0
 17 19  1  0  0  0  0
 17 20  1  0  0  0  0
M  END
> <VConfSearch Rank>
903

> <Conf_Id>
22

> <Delta U+W>
0.731

> <U+W>
-11.047

> <U>
47.078

> <W>
-58.125

> <W(PB)>
-60.031

> <W(SA)>
1.906

> <Valence>
2.039

> <Coulomb>
44.655

> <VdW>
0.383

> <VdW6>
-4.913

> <VdW12>
5.296

> <Bond>
0.159

> <Angle>
0.856

> <Pdih>
1.024

> <Idih>
0.000

> <Tether>
0.000

$$$$
VeraChem MOL file


 20 19  0  0  0  0  0  0  0  0999 V2000     
   22.2485   19.2466   24.2977 N   0  3  0  0  0  0  0  0  0  0  0  0
   22.7755   18.4086   24.0327 H   0  0  0  0  0  0  0  0  0  0  0  0
   22.8731   20.0487   24.1680 H   0  0  0  0  0  0  0  0  0  0  0  0
   22.0620   19.1750   25.3035 H   0  0  0  0  0  0  0  0  0  0  0  0
   20.9701   19.3888   23.4963 C   0  0  0  0  0  0  0  0  0  0  0  0
   20.4480   20.2827   23.8479 H   0  0  0  0  0  0  0  0  0  0  0  0
   20.3475   18.5165   23.7079 H   0  0  0  0  0  0  0  0  0  0  0  0
   21.2158   19.4932   21.9806 C   0  0  0  0  0  0  0  0  0  0  0  0
   21.9378   20.2994   21.7947 H   0  0  0  0  0  0  0  0  0  0  0  0
   21.6854   18.5677   21.6218 H   0  0  0  0  0  0  0  0  0  0  0  0
   19.9361   19.7810   21.1551 C   0  0  0  0  0  0  0  0  0  0  0  0
   20.2433   19.9249   20.1099 H   0  0  0  0  0  0  0  0  0  0  0  0
   19.4906   20.7358   21.4673 H   0  0  0  0  0  0  0  0  0  0  0  0
   18.8694   18.6558   21.1901 C   0  0  0  0  0  0  0  0  0  0  0  0
   18.2984   18.6929   20.2516 H   0  0  0  0  0  0  0  0  0  0  0  0
   19.3553   17.6702   21.2084 H   0  0  0  0  0  0  0  0  0  0  0  0
   17.8646   18.7804   22.3596 C   0  0  0  0  0  0  0  0  0  0  0  0
   18.3459   18.6613   23.3358 H   0  0  0  0  0  0  0  0  0  0  0  0
   17.3617   19.7561   22.3443 H   0  0  0  0  0  0  0  0  0  0  0  0
   17.0897   18.0070   22.2808 H   0  0  0  0  0  0  0  0  0  0  0  0
  1  2  1  0  0  0  0
  1  3  1  0  0  0  0
  1  4  1  0  0  0  0
  1  5  1  0  0  0  0
  5  6  1  0  0  0  0
  5  7  1  0  0  0  0
  5  8  1  0  0  0  0
  8  9  1  0  0  0  0
  8 10  1  0  0  0  0
  8 11  1  0  0  0  0
 11 12  1  0  0  0  0
 11 13  1  0  0  0  0
 11 14  1  0  0  0  0
 14 15  1  0  0  0  0
 14 16  1  0  0  0  0
 14 17  1  0  0  0  0
 17 18  1  0  0  0  0
 17 19  1  0  0  0  0
 17 20  1  0  0  0  0
M  END
> <VConfSearch Rank>
904

> <Conf_Id>
61

> <Delta U+W>
2.669

> <U+W>
-9.108

> <U>
48.916

> <W>
-58.025

> <W(PB)>
-59.935

> <W(SA)>
1.911

> <Valence>
3.785

> <Coulomb>
44.716

> <VdW>
0.415

> <VdW6>
-4.836

> <VdW12>
5.251

> <Bond>
0.175

> <Angle>
1.195

> <Pdih>
2.415

> <Idih>
0.000

> <Tether>
0.000

$$$$
VeraChem MOL file


 20 19  0  0  0  0  0  0  0  0999 V2000     
   19.6839   21.0105   23.5250 N   0  3  0  0  0  0  0  0  0  0  0  0
   19.6289   22.0303   23.4319 H   0  0  0  0  0  0  0  0  0  0  0  0
   19.5394   20.7951   24.5165 H   0  0  0  0  0  0  0  0  0  0  0  0
   20.6428   20.7389   23.2935 H   0  0  0  0  0  0  0  0  0  0  0  0
   18.6675   20.3103   22.6434 C   0  0  0  0  0  0  0  0  0  0  0  0
   18.8316   20.6205   21.6079 H   0  0  0  0  0  0  0  0  0  0  0  0
   17.6807   20.6673   22.9506 H   0  0  0  0  0  0  0  0  0  0  0  0
   18.6951   18.7704   22.7398 C   0  0  0  0  0  0  0  0  0  0  0  0
   18.8034   18.4606   23.7877 H   0  0  0  0  0  0  0  0  0  0  0  0
   17.7139   18.3983   22.4163 H   0  0  0  0  0  0  0  0  0  0  0  0
   19.7745   18.0886   21.8602 C   0  0  0  0  0  0  0  0  0  0  0  0
   19.6161   18.3627   20.8079 H   0  0  0  0  0  0  0  0  0  0  0  0
   19.6256   17.0014   21.9180 H   0  0  0  0  0  0  0  0  0  0  0  0
   21.2314   18.4150   22.2644 C   0  0  0  0  0  0  0  0  0  0  0  0
   21.4474   19.4731   22.0706 H   0  0  0  0  0  0  0  0  0  0  0  0
   21.3676   18.2446   23.3416 H   0  0  0  0  0  0  0  0  0  0  0  0
   22.2452   17.5549   21.4799 C   0  0  0  0  0  0  0  0  0  0  0  0
   23.2735   17.8053   21.7711 H   0  0  0  0  0  0  0  0  0  0  0  0
   22.0917   16.4855   21.6753 H   0  0  0  0  0  0  0  0  0  0  0  0
   22.1513   17.7217   20.3989 H   0  0  0  0  0  0  0  0  0  0  0  0
  1  2  1  0  0  0  0
  1  3  1  0  0  0  0
  1  4  1  0  0  0  0
  1  5  1  0  0  0  0
  5  6  1  0  0  0  0
  5  7  1  0  0  0  0
  5  8  1  0  0  0  0
  8  9  1  0  0  0  0
  8 10  1  0  0  0  0
  8 11  1  0  0  0  0
 11 12  1  0  0  0  0
 11 13  1  0  0  0  0
 11 14  1  0  0  0  0
 14 15  1  0  0  0  0
 14 16  1  0  0  0  0
 14 17  1  0  0  0  0
 17 18  1  0  0  0  0
 17 19  1  0  0  0  0
 17 20  1  0  0  0  0
M  END
> <VConfSearch Rank>
905

> <Conf_Id>
69

> <Delta U+W>
2.811

> <U+W>
-8.967

> <U>
49.216

> <W>
-58.183

> <W(PB)>
-60.064

> <W(SA)>
1.881

> <Valence>
2.929

> <Coulomb>
46.006

> <VdW>
0.281

> <VdW6>
-4.909

> <VdW12>
5.190

> <Bond>
0.156

> <Angle>
0.974

> <Pdih>
1.799

> <Idih>
0.000

> <Tether>
0.000

$$$$
VeraChem MOL file


 20 19  0  0  0  0  0  0  0  0999 V2000     
   18.9218   19.8684   20.5715 N   0  3  0  0  0  0  0  0  0  0  0  0
   19.6951   20.4180   20.9549 H   0  0  0  0  0  0  0  0  0  0  0  0
   19.2847   19.3621   19.7578 H   0  0  0  0  0  0  0  0  0  0  0  0
   18.2247   20.5336   20.2203 H   0  0  0  0  0  0  0  0  0  0  0  0
   18.3299   18.9263   21.6023 C   0  0  0  0  0  0  0  0  0  0  0  0
   17.5097   18.3941   21.1127 H   0  0  0  0  0  0  0  0  0  0  0  0
   17.9079   19.5211   22.4168 H   0  0  0  0  0  0  0  0  0  0  0  0
   19.3281   17.8949   22.1691 C   0  0  0  0  0  0  0  0  0  0  0  0
   18.7476   17.0481   22.5587 H   0  0  0  0  0  0  0  0  0  0  0  0
   19.9484   17.4872   21.3600 H   0  0  0  0  0  0  0  0  0  0  0  0
   20.2212   18.4268   23.3194 C   0  0  0  0  0  0  0  0  0  0  0  0
   20.8024   17.5839   23.7184 H   0  0  0  0  0  0  0  0  0  0  0  0
   19.5856   18.7770   24.1445 H   0  0  0  0  0  0  0  0  0  0  0  0
   21.1964   19.5539   22.9056 C   0  0  0  0  0  0  0  0  0  0  0  0
   21.7609   19.2507   22.0126 H   0  0  0  0  0  0  0  0  0  0  0  0
   20.6352   20.4602   22.6459 H   0  0  0  0  0  0  0  0  0  0  0  0
   22.1842   19.8963   24.0414 C   0  0  0  0  0  0  0  0  0  0  0  0
   22.7974   19.0257   24.3083 H   0  0  0  0  0  0  0  0  0  0  0  0
   22.8622   20.7036   23.7355 H   0  0  0  0  0  0  0  0  0  0  0  0
   21.6508   20.2276   24.9419 H   0  0  0  0  0  0  0  0  0  0  0  0
  1  2  1  0  0  0  0
  1  3  1  0  0  0  0
  1  4  1  0  0  0  0
  1  5  1  0  0  0  0
  5  6  1  0  0  0  0
  5  7  1  0  0  0  0
  5  8  1  0  0  0  0
  8  9  1  0  0  0  0
  8 10  1  0  0  0  0
  8 11  1  0  0  0  0
 11 12  1  0  0  0  0
 11 13  1  0  0  0  0
 11 14  1  0  0  0  0
 14 15  1  0  0  0  0
 14 16  1  0  0  0  0
 14 17  1  0  0  0  0
 17 18  1  0  0  0  0
 17 19  1  0  0  0  0
 17 20  1  0  0  0  0
M  END
> <VConfSearch Rank>
906

> <Conf_Id>
26

> <Delta U+W>
2.809

> <U+W>
-8.969

> <U>
49.216

> <W>
-58.185

> <W(PB)>
-60.088

> <W(SA)>
1.903

> <Valence>
2.929

> <Coulomb>
46.006

> <VdW>
0.281

> <VdW6>
-4.909

> <VdW12>
5.190

> <Bond>
0.156

> <Angle>
0.974

> <Pdih>
1.799

> <Idih>
0.000

> <Tether>
0.000

$$$$
VeraChem MOL file


 20 19  0  0  0  0  0  0  0  0999 V2000     
   20.9061   16.8902   22.2671 N   0  3  0  0  0  0  0  0  0  0  0  0
   20.6022   17.0227   23.2361 H   0  0  0  0  0  0  0  0  0  0  0  0
   20.2669   16.2132   21.8392 H   0  0  0  0  0  0  0  0  0  0  0  0
   21.8307   16.4482   22.2997 H   0  0  0  0  0  0  0  0  0  0  0  0
   20.9338   18.1999   21.5036 C   0  0  0  0  0  0  0  0  0  0  0  0
   21.2948   17.9889   20.4933 H   0  0  0  0  0  0  0  0  0  0  0  0
   21.6552   18.8617   21.9899 H   0  0  0  0  0  0  0  0  0  0  0  0
   19.5612   18.8981   21.4211 C   0  0  0  0  0  0  0  0  0  0  0  0
   19.6562   19.7917   20.7910 H   0  0  0  0  0  0  0  0  0  0  0  0
   18.8535   18.2390   20.9011 H   0  0  0  0  0  0  0  0  0  0  0  0
   18.9712   19.2939   22.8003 C   0  0  0  0  0  0  0  0  0  0  0  0
   18.7256   18.3845   23.3651 H   0  0  0  0  0  0  0  0  0  0  0  0
   18.0151   19.8112   22.6405 H   0  0  0  0  0  0  0  0  0  0  0  0
   19.8910   20.1907   23.6680 C   0  0  0  0  0  0  0  0  0  0  0  0
   19.3863   20.3897   24.6238 H   0  0  0  0  0  0  0  0  0  0  0  0
   20.8157   19.6547   23.9214 H   0  0  0  0  0  0  0  0  0  0  0  0
   20.2399   21.5397   22.9992 C   0  0  0  0  0  0  0  0  0  0  0  0
   19.3312   22.0888   22.7205 H   0  0  0  0  0  0  0  0  0  0  0  0
   20.8164   22.1720   23.6867 H   0  0  0  0  0  0  0  0  0  0  0  0
   20.8459   21.3966   22.0959 H   0  0  0  0  0  0  0  0  0  0  0  0
  1  2  1  0  0  0  0
  1  3  1  0  0  0  0
  1  4  1  0  0  0  0
  1  5  1  0  0  0  0
  5  6  1  0  0  0  0
  5  7  1  0  0  0  0
  5  8  1  0  0  0  0
  8  9  1  0  0  0  0
  8 10  1  0  0  0  0
  8 11  1  0  0  0  0
 11 12  1  0  0  0  0
 11 13  1  0  0  0  0
 11 14  1  0  0  0  0
 14 15  1  0  0  0  0
 14 16  1  0  0  0  0
 14 17  1  0  0  0  0
 17 18  1  0  0  0  0
 17 19  1  0  0  0  0
 17 20  1  0  0  0  0
M  END
> <VConfSearch Rank>
907

> <Conf_Id>
2

> <Delta U+W>
0.994

> <U+W>
-10.784

> <U>
47.562

> <W>
-58.346

> <W(PB)>
-60.221

> <W(SA)>
1.875

> <Valence>
2.149

> <Coulomb>
45.034

> <VdW>
0.378

> <VdW6>
-5.599

> <VdW12>
5.977

> <Bond>
0.185

> <Angle>
0.935

> <Pdih>
1.028

> <Idih>
0.000

> <Tether>
0.000

$$$$
VeraChem MOL file


 20 19  0  0  0  0  0  0  0  0999 V2000     
   18.8529   19.6131   24.4209 N   0  3  0  0  0  0  0  0  0  0  0  0
   17.8349   19.5332   24.3357 H   0  0  0  0  0  0  0  0  0  0  0  0
   19.2208   18.6665   24.5532 H   0  0  0  0  0  0  0  0  0  0  0  0
   19.0402   20.1320   25.2852 H   0  0  0  0  0  0  0  0  0  0  0  0
   19.4684   20.2903   23.2120 C   0  0  0  0  0  0  0  0  0  0  0  0
   20.5453   20.3735   23.3805 H   0  0  0  0  0  0  0  0  0  0  0  0
   19.0559   21.3010   23.1505 H   0  0  0  0  0  0  0  0  0  0  0  0
   19.2057   19.5487   21.8856 C   0  0  0  0  0  0  0  0  0  0  0  0
   18.1230   19.5007   21.7093 H   0  0  0  0  0  0  0  0  0  0  0  0
   19.6171   20.1436   21.0602 H   0  0  0  0  0  0  0  0  0  0  0  0
   19.7948   18.1143   21.8378 C   0  0  0  0  0  0  0  0  0  0  0  0
   19.5884   17.6801   20.8498 H   0  0  0  0  0  0  0  0  0  0  0  0
   19.2626   17.4786   22.5581 H   0  0  0  0  0  0  0  0  0  0  0  0
   21.3167   18.0266   22.1194 C   0  0  0  0  0  0  0  0  0  0  0  0
   21.5348   18.3666   23.1408 H   0  0  0  0  0  0  0  0  0  0  0  0
   21.6200   16.9709   22.0818 H   0  0  0  0  0  0  0  0  0  0  0  0
   22.1736   18.8267   21.1122 C   0  0  0  0  0  0  0  0  0  0  0  0
   21.9878   19.9049   21.1926 H   0  0  0  0  0  0  0  0  0  0  0  0
   23.2423   18.6610   21.2998 H   0  0  0  0  0  0  0  0  0  0  0  0
   21.9621   18.5171   20.0805 H   0  0  0  0  0  0  0  0  0  0  0  0
  1  2  1  0  0  0  0
  1  3  1  0  0  0  0
  1  4  1  0  0  0  0
  1  5  1  0  0  0  0
  5  6  1  0  0  0  0
  5  7  1  0  0  0  0
  5  8  1  0  0  0  0
  8  9  1  0  0  0  0
  8 10  1  0  0  0  0
  8 11  1  0  0  0  0
 11 12  1  0  0  0  0
 11 13  1  0  0  0  0
 11 14  1  0  0  0  0
 14 15  1  0  0  0  0
 14 16  1  0  0  0  0
 14 17  1  0  0  0  0
 17 18  1  0  0  0  0
 17 19  1  0  0  0  0
 17 20  1  0  0  0  0
M  END
> <VConfSearch Rank>
908

> <Conf_Id>
1

> <Delta U+W>
1.032

> <U+W>
-10.746

> <U>
47.562

> <W>
-58.308

> <W(PB)>
-60.184

> <W(SA)>
1.877

> <Valence>
2.149

> <Coulomb>
45.035

> <VdW>
0.378

> <VdW6>
-5.599

> <VdW12>
5.978

> <Bond>
0.185

> <Angle>
0.935

> <Pdih>
1.028

> <Idih>
0.000

> <Tether>
0.000

$$$$
VeraChem MOL file


 20 19  0  0  0  0  0  0  0  0999 V2000     
   20.9600   17.2992   21.2117 N   0  3  0  0  0  0  0  0  0  0  0  0
   21.3205   16.4702   21.6942 H   0  0  0  0  0  0  0  0  0  0  0  0
   19.9382   17.2621   21.2681 H   0  0  0  0  0  0  0  0  0  0  0  0
   21.2090   17.1998   20.2220 H   0  0  0  0  0  0  0  0  0  0  0  0
   21.5109   18.5817   21.8047 C   0  0  0  0  0  0  0  0  0  0  0  0
   21.1128   19.4173   21.2270 H   0  0  0  0  0  0  0  0  0  0  0  0
   22.5958   18.5664   21.6696 H   0  0  0  0  0  0  0  0  0  0  0  0
   21.1904   18.7636   23.3037 C   0  0  0  0  0  0  0  0  0  0  0  0
   21.5978   17.9001   23.8461 H   0  0  0  0  0  0  0  0  0  0  0  0
   21.7290   19.6403   23.6869 H   0  0  0  0  0  0  0  0  0  0  0  0
   19.6791   18.8960   23.6335 C   0  0  0  0  0  0  0  0  0  0  0  0
   19.5366   18.6012   24.6824 H   0  0  0  0  0  0  0  0  0  0  0  0
   19.0902   18.1797   23.0464 H   0  0  0  0  0  0  0  0  0  0  0  0
   19.0938   20.3225   23.4702 C   0  0  0  0  0  0  0  0  0  0  0  0
   18.0516   20.3090   23.8187 H   0  0  0  0  0  0  0  0  0  0  0  0
   19.6253   21.0194   24.1332 H   0  0  0  0  0  0  0  0  0  0  0  0
   19.1205   20.8672   22.0250 C   0  0  0  0  0  0  0  0  0  0  0  0
   18.6983   20.1420   21.3174 H   0  0  0  0  0  0  0  0  0  0  0  0
   18.5284   21.7887   21.9534 H   0  0  0  0  0  0  0  0  0  0  0  0
   20.1411   21.1143   21.7099 H   0  0  0  0  0  0  0  0  0  0  0  0
  1  2  1  0  0  0  0
  1  3  1  0  0  0  0
  1  4  1  0  0  0  0
  1  5  1  0  0  0  0
  5  6  1  0  0  0  0
  5  7  1  0  0  0  0
  5  8  1  0  0  0  0
  8  9  1  0  0  0  0
  8 10  1  0  0  0  0
  8 11  1  0  0  0  0
 11 12  1  0  0  0  0
 11 13  1  0  0  0  0
 11 14  1  0  0  0  0
 14 15  1  0  0  0  0
 14 16  1  0  0  0  0
 14 17  1  0  0  0  0
 17 18  1  0  0  0  0
 17 19  1  0  0  0  0
 17 20  1  0  0  0  0
M  END
> <VConfSearch Rank>
909

> <Conf_Id>
80

> <Delta U+W>
2.920

> <U+W>
-8.857

> <U>
49.434

> <W>
-58.292

> <W(PB)>
-60.170

> <W(SA)>
1.879

> <Valence>
3.798

> <Coulomb>
45.253

> <VdW>
0.384

> <VdW6>
-5.595

> <VdW12>
5.979

> <Bond>
0.198

> <Angle>
1.368

> <Pdih>
2.231

> <Idih>
0.000

> <Tether>
0.000

$$$$
VeraChem MOL file


 20 19  0  0  0  0  0  0  0  0999 V2000     
   21.2558   18.0407   24.2143 N   0  3  0  0  0  0  0  0  0  0  0  0
   21.0819   18.3300   25.1818 H   0  0  0  0  0  0  0  0  0  0  0  0
   21.7223   17.1285   24.2552 H   0  0  0  0  0  0  0  0  0  0  0  0
   21.9282   18.7028   23.8165 H   0  0  0  0  0  0  0  0  0  0  0  0
   19.9754   17.9824   23.4037 C   0  0  0  0  0  0  0  0  0  0  0  0
   19.3302   17.2286   23.8630 H   0  0  0  0  0  0  0  0  0  0  0  0
   20.2288   17.6399   22.3992 H   0  0  0  0  0  0  0  0  0  0  0  0
   19.2171   19.3253   23.3383 C   0  0  0  0  0  0  0  0  0  0  0  0
   18.2457   19.1709   22.8502 H   0  0  0  0  0  0  0  0  0  0  0  0
   18.9902   19.6385   24.3660 H   0  0  0  0  0  0  0  0  0  0  0  0
   19.9833   20.4700   22.6222 C   0  0  0  0  0  0  0  0  0  0  0  0
   21.0413   20.4701   22.9145 H   0  0  0  0  0  0  0  0  0  0  0  0
   19.5794   21.4246   22.9868 H   0  0  0  0  0  0  0  0  0  0  0  0
   19.8608   20.4758   21.0765 C   0  0  0  0  0  0  0  0  0  0  0  0
   18.8046   20.5727   20.7888 H   0  0  0  0  0  0  0  0  0  0  0  0
   20.3620   21.3763   20.6948 H   0  0  0  0  0  0  0  0  0  0  0  0
   20.4722   19.2412   20.3781 C   0  0  0  0  0  0  0  0  0  0  0  0
   19.8647   18.3444   20.5479 H   0  0  0  0  0  0  0  0  0  0  0  0
   20.5174   19.3998   19.2929 H   0  0  0  0  0  0  0  0  0  0  0  0
   21.4934   19.0478   20.7312 H   0  0  0  0  0  0  0  0  0  0  0  0
  1  2  1  0  0  0  0
  1  3  1  0  0  0  0
  1  4  1  0  0  0  0
  1  5  1  0  0  0  0
  5  6  1  0  0  0  0
  5  7  1  0  0  0  0
  5  8  1  0  0  0  0
  8  9  1  0  0  0  0
  8 10  1  0  0  0  0
  8 11  1  0  0  0  0
 11 12  1  0  0  0  0
 11 13  1  0  0  0  0
 11 14  1  0  0  0  0
 14 15  1  0  0  0  0
 14 16  1  0  0  0  0
 14 17  1  0  0  0  0
 17 18  1  0  0  0  0
 17 19  1  0  0  0  0
 17 20  1  0  0  0  0
M  END
> <VConfSearch Rank>
910

> <Conf_Id>
65

> <Delta U+W>
2.949

> <U+W>
-8.829

> <U>
49.435

> <W>
-58.263

> <W(PB)>
-60.125

> <W(SA)>
1.862

> <Valence>
3.797

> <Coulomb>
45.253

> <VdW>
0.384

> <VdW6>
-5.596

> <VdW12>
5.980

> <Bond>
0.198

> <Angle>
1.369

> <Pdih>
2.230

> <Idih>
0.000

> <Tether>
0.000

$$$$
VeraChem MOL file


 20 19  0  0  0  0  0  0  0  0999 V2000     
   19.8660   21.0135   21.6444 N   0  3  0  0  0  0  0  0  0  0  0  0
   20.2665   21.5601   20.8746 H   0  0  0  0  0  0  0  0  0  0  0  0
   19.4507   20.1701   21.2371 H   0  0  0  0  0  0  0  0  0  0  0  0
   19.1013   21.5702   22.0389 H   0  0  0  0  0  0  0  0  0  0  0  0
   20.9073   20.6669   22.6909 C   0  0  0  0  0  0  0  0  0  0  0  0
   21.2993   21.6120   23.0767 H   0  0  0  0  0  0  0  0  0  0  0  0
   21.7282   20.1324   22.2054 H   0  0  0  0  0  0  0  0  0  0  0  0
   20.3606   19.8314   23.8663 C   0  0  0  0  0  0  0  0  0  0  0  0
   21.0271   19.9876   24.7249 H   0  0  0  0  0  0  0  0  0  0  0  0
   19.3810   20.2201   24.1746 H   0  0  0  0  0  0  0  0  0  0  0  0
   20.2729   18.3034   23.6070 C   0  0  0  0  0  0  0  0  0  0  0  0
   19.9239   17.8324   24.5364 H   0  0  0  0  0  0  0  0  0  0  0  0
   21.2779   17.8952   23.4311 H   0  0  0  0  0  0  0  0  0  0  0  0
   19.3174   17.8752   22.4641 C   0  0  0  0  0  0  0  0  0  0  0  0
   18.8394   16.9260   22.7449 H   0  0  0  0  0  0  0  0  0  0  0  0
   18.4974   18.5980   22.3575 H   0  0  0  0  0  0  0  0  0  0  0  0
   20.0428   17.6579   21.1149 C   0  0  0  0  0  0  0  0  0  0  0  0
   20.6075   18.5402   20.7953 H   0  0  0  0  0  0  0  0  0  0  0  0
   20.7518   16.8228   21.1881 H   0  0  0  0  0  0  0  0  0  0  0  0
   19.3227   17.4109   20.3239 H   0  0  0  0  0  0  0  0  0  0  0  0
  1  2  1  0  0  0  0
  1  3  1  0  0  0  0
  1  4  1  0  0  0  0
  1  5  1  0  0  0  0
  5  6  1  0  0  0  0
  5  7  1  0  0  0  0
  5  8  1  0  0  0  0
  8  9  1  0  0  0  0
  8 10  1  0  0  0  0
  8 11  1  0  0  0  0
 11 12  1  0  0  0  0
 11 13  1  0  0  0  0
 11 14  1  0  0  0  0
 14 15  1  0  0  0  0
 14 16  1  0  0  0  0
 14 17  1  0  0  0  0
 17 18  1  0  0  0  0
 17 19  1  0  0  0  0
 17 20  1  0  0  0  0
M  END
> <VConfSearch Rank>
911

> <Conf_Id>
77

> <Delta U+W>
5.366

> <U+W>
-6.412

> <U>
51.542

> <W>
-57.954

> <W(PB)>
-59.811

> <W(SA)>
1.857

> <Valence>
5.347

> <Coulomb>
45.870

> <VdW>
0.325

> <VdW6>
-6.161

> <VdW12>
6.486

> <Bond>
0.201

> <Angle>
1.484

> <Pdih>
3.662

> <Idih>
0.000

> <Tether>
0.000

$$$$
VeraChem MOL file


 20 19  0  0  0  0  0  0  0  0999 V2000     
   21.5054   20.3888   21.8550 N   0  3  0  0  0  0  0  0  0  0  0  0
   21.2175   20.9383   21.0392 H   0  0  0  0  0  0  0  0  0  0  0  0
   20.8309   20.5770   22.6029 H   0  0  0  0  0  0  0  0  0  0  0  0
   22.4117   20.7598   22.1596 H   0  0  0  0  0  0  0  0  0  0  0  0
   21.5804   18.9079   21.5377 C   0  0  0  0  0  0  0  0  0  0  0  0
   21.9536   18.3789   22.4187 H   0  0  0  0  0  0  0  0  0  0  0  0
   22.3137   18.7899   20.7354 H   0  0  0  0  0  0  0  0  0  0  0  0
   20.2388   18.2948   21.0877 C   0  0  0  0  0  0  0  0  0  0  0  0
   19.7309   18.9792   20.3954 H   0  0  0  0  0  0  0  0  0  0  0  0
   20.4636   17.3925   20.5036 H   0  0  0  0  0  0  0  0  0  0  0  0
   19.2791   17.8870   22.2378 C   0  0  0  0  0  0  0  0  0  0  0  0
   19.7419   17.1012   22.8508 H   0  0  0  0  0  0  0  0  0  0  0  0
   18.3970   17.4192   21.7788 H   0  0  0  0  0  0  0  0  0  0  0  0
   18.7907   19.0479   23.1413 C   0  0  0  0  0  0  0  0  0  0  0  0
   18.7600   19.9887   22.5754 H   0  0  0  0  0  0  0  0  0  0  0  0
   17.7512   18.8475   23.4372 H   0  0  0  0  0  0  0  0  0  0  0  0
   19.6275   19.2060   24.4330 C   0  0  0  0  0  0  0  0  0  0  0  0
   19.2829   20.0715   25.0138 H   0  0  0  0  0  0  0  0  0  0  0  0
   19.5241   18.3183   25.0708 H   0  0  0  0  0  0  0  0  0  0  0  0
   20.6950   19.3394   24.2277 H   0  0  0  0  0  0  0  0  0  0  0  0
  1  2  1  0  0  0  0
  1  3  1  0  0  0  0
  1  4  1  0  0  0  0
  1  5  1  0  0  0  0
  5  6  1  0  0  0  0
  5  7  1  0  0  0  0
  5  8  1  0  0  0  0
  8  9  1  0  0  0  0
  8 10  1  0  0  0  0
  8 11  1  0  0  0  0
 11 12  1  0  0  0  0
 11 13  1  0  0  0  0
 11 14  1  0  0  0  0
 14 15  1  0  0  0  0
 14 16  1  0  0  0  0
 14 17  1  0  0  0  0
 17 18  1  0  0  0  0
 17 19  1  0  0  0  0
 17 20  1  0  0  0  0
M  END
> <VConfSearch Rank>
912

> <Conf_Id>
67

> <Delta U+W>
5.353

> <U+W>
-6.425

> <U>
51.541

> <W>
-57.966

> <W(PB)>
-59.821

> <W(SA)>
1.855

> <Valence>
5.347

> <Coulomb>
45.870

> <VdW>
0.325

> <VdW6>
-6.161

> <VdW12>
6.486

> <Bond>
0.201

> <Angle>
1.485

> <Pdih>
3.662

> <Idih>
0.000

> <Tether>
0.000

$$$$
VeraChem MOL file


 20 19  0  0  0  0  0  0  0  0999 V2000     
   18.6044   21.4761   24.0249 N   0  3  0  0  0  0  0  0  0  0  0  0
   18.3273   20.9389   24.8526 H   0  0  0  0  0  0  0  0  0  0  0  0
   18.8071   22.4295   24.3436 H   0  0  0  0  0  0  0  0  0  0  0  0
   17.7827   21.5353   23.4152 H   0  0  0  0  0  0  0  0  0  0  0  0
   19.7915   20.8545   23.3172 C   0  0  0  0  0  0  0  0  0  0  0  0
   20.6352   20.8513   24.0126 H   0  0  0  0  0  0  0  0  0  0  0  0
   20.0497   21.4922   22.4674 H   0  0  0  0  0  0  0  0  0  0  0  0
   19.5202   19.4214   22.8256 C   0  0  0  0  0  0  0  0  0  0  0  0
   19.2458   18.7883   23.6799 H   0  0  0  0  0  0  0  0  0  0  0  0
   18.6623   19.4270   22.1400 H   0  0  0  0  0  0  0  0  0  0  0  0
   20.7534   18.8252   22.1110 C   0  0  0  0  0  0  0  0  0  0  0  0
   21.6112   18.8260   22.7980 H   0  0  0  0  0  0  0  0  0  0  0  0
   21.0283   19.4639   21.2599 H   0  0  0  0  0  0  0  0  0  0  0  0
   20.4926   17.3860   21.6129 C   0  0  0  0  0  0  0  0  0  0  0  0
   20.2193   16.7432   22.4616 H   0  0  0  0  0  0  0  0  0  0  0  0
   19.6365   17.3810   20.9236 H   0  0  0  0  0  0  0  0  0  0  0  0
   21.7273   16.7944   20.8998 C   0  0  0  0  0  0  0  0  0  0  0  0
   22.5919   16.7542   21.5751 H   0  0  0  0  0  0  0  0  0  0  0  0
   21.5228   15.7729   20.5538 H   0  0  0  0  0  0  0  0  0  0  0  0
   22.0045   17.3969   20.0250 H   0  0  0  0  0  0  0  0  0  0  0  0
  1  2  1  0  0  0  0
  1  3  1  0  0  0  0
  1  4  1  0  0  0  0
  1  5  1  0  0  0  0
  5  6  1  0  0  0  0
  5  7  1  0  0  0  0
  5  8  1  0  0  0  0
  8  9  1  0  0  0  0
  8 10  1  0  0  0  0
  8 11  1  0  0  0  0
 11 12  1  0  0  0  0
 11 13  1  0  0  0  0
 11 14  1  0  0  0  0
 14 15  1  0  0  0  0
 14 16  1  0  0  0  0
 14 17  1  0  0  0  0
 17 18  1  0  0  0  0
 17 19  1  0  0  0  0
 17 20  1  0  0  0  0
M  END
> <VConfSearch Rank>
913

> <Conf_Id>
72

> <Delta U+W>
0.000

> <U+W>
-11.778

> <U>
45.772

> <W>
-57.550

> <W(PB)>
-59.511

> <W(SA)>
1.961

> <Valence>
1.299

> <Coulomb>
44.177

> <VdW>
0.297

> <VdW6>
-3.490

> <VdW12>
3.786

> <Bond>
0.096

> <Angle>
0.381

> <Pdih>
0.822

> <Idih>
0.000

> <Tether>
0.000

$$$$
VeraChem MOL file


 20 19  0  0  0  0  0  0  0  0999 V2000     
   18.9930   16.5075   21.6686 N   0  3  0  0  0  0  0  0  0  0  0  0
   19.3582   16.0698   22.5203 H   0  0  0  0  0  0  0  0  0  0  0  0
   18.0033   16.7140   21.8364 H   0  0  0  0  0  0  0  0  0  0  0  0
   19.0272   15.7962   20.9307 H   0  0  0  0  0  0  0  0  0  0  0  0
   19.7746   17.7494   21.2898 C   0  0  0  0  0  0  0  0  0  0  0  0
   19.3523   18.1437   20.3615 H   0  0  0  0  0  0  0  0  0  0  0  0
   20.8088   17.4518   21.0971 H   0  0  0  0  0  0  0  0  0  0  0  0
   19.7435   18.8390   22.3766 C   0  0  0  0  0  0  0  0  0  0  0  0
   18.7022   19.1235   22.5782 H   0  0  0  0  0  0  0  0  0  0  0  0
   20.1528   18.4273   23.3077 H   0  0  0  0  0  0  0  0  0  0  0  0
   20.5505   20.0870   21.9472 C   0  0  0  0  0  0  0  0  0  0  0  0
   20.1755   20.4387   20.9759 H   0  0  0  0  0  0  0  0  0  0  0  0
   21.6026   19.8114   21.7901 H   0  0  0  0  0  0  0  0  0  0  0  0
   20.4671   21.2553   22.9595 C   0  0  0  0  0  0  0  0  0  0  0  0
   20.9763   22.1300   22.5312 H   0  0  0  0  0  0  0  0  0  0  0  0
   19.4179   21.5501   23.1015 H   0  0  0  0  0  0  0  0  0  0  0  0
   21.1052   20.9288   24.3291 C   0  0  0  0  0  0  0  0  0  0  0  0
   22.1472   20.6038   24.2122 H   0  0  0  0  0  0  0  0  0  0  0  0
   21.1013   21.8158   24.9758 H   0  0  0  0  0  0  0  0  0  0  0  0
   20.5545   20.1376   24.8527 H   0  0  0  0  0  0  0  0  0  0  0  0
  1  2  1  0  0  0  0
  1  3  1  0  0  0  0
  1  4  1  0  0  0  0
  1  5  1  0  0  0  0
  5  6  1  0  0  0  0
  5  7  1  0  0  0  0
  5  8  1  0  0  0  0
  8  9  1  0  0  0  0
  8 10  1  0  0  0  0
  8 11  1  0  0  0  0
 11 12  1  0  0  0  0
 11 13  1  0  0  0  0
 11 14  1  0  0  0  0
 14 15  1  0  0  0  0
 14 16  1  0  0  0  0
 14 17  1  0  0  0  0
 17 18  1  0  0  0  0
 17 19  1  0  0  0  0
 17 20  1  0  0  0  0
M  END
> <VConfSearch Rank>
914

> <Conf_Id>
42

> <Delta U+W>
0.508

> <U+W>
-11.270

> <U>
46.486

> <W>
-57.756

> <W(PB)>
-59.705

> <W(SA)>
1.949

> <Valence>
1.806

> <Coulomb>
44.248

> <VdW>
0.433

> <VdW6>
-4.089

> <VdW12>
4.522

> <Bond>
0.131

> <Angle>
0.628

> <Pdih>
1.047

> <Idih>
0.000

> <Tether>
0.000

$$$$
VeraChem MOL file


 20 19  0  0  0  0  0  0  0  0999 V2000     
   21.8290   16.6144   21.9661 N   0  3  0  0  0  0  0  0  0  0  0  0
   22.5653   16.8060   22.6528 H   0  0  0  0  0  0  0  0  0  0  0  0
   21.1370   16.0142   22.4258 H   0  0  0  0  0  0  0  0  0  0  0  0
   22.2569   16.0566   21.2195 H   0  0  0  0  0  0  0  0  0  0  0  0
   21.2076   17.8888   21.4311 C   0  0  0  0  0  0  0  0  0  0  0  0
   20.4565   17.6115   20.6865 H   0  0  0  0  0  0  0  0  0  0  0  0
   21.9923   18.4622   20.9300 H   0  0  0  0  0  0  0  0  0  0  0  0
   20.5561   18.7510   22.5272 C   0  0  0  0  0  0  0  0  0  0  0  0
   19.7832   18.1601   23.0348 H   0  0  0  0  0  0  0  0  0  0  0  0
   21.3101   19.0139   23.2810 H   0  0  0  0  0  0  0  0  0  0  0  0
   19.9377   20.0405   21.9373 C   0  0  0  0  0  0  0  0  0  0  0  0
   19.1509   19.7776   21.2167 H   0  0  0  0  0  0  0  0  0  0  0  0
   20.7087   20.5794   21.3691 H   0  0  0  0  0  0  0  0  0  0  0  0
   19.3592   20.9951   23.0100 C   0  0  0  0  0  0  0  0  0  0  0  0
   20.1490   21.2797   23.7194 H   0  0  0  0  0  0  0  0  0  0  0  0
   19.0386   21.9245   22.5189 H   0  0  0  0  0  0  0  0  0  0  0  0
   18.1588   20.3992   23.7803 C   0  0  0  0  0  0  0  0  0  0  0  0
   18.4569   19.5345   24.3859 H   0  0  0  0  0  0  0  0  0  0  0  0
   17.7305   21.1461   24.4612 H   0  0  0  0  0  0  0  0  0  0  0  0
   17.3660   20.0803   23.0912 H   0  0  0  0  0  0  0  0  0  0  0  0
  1  2  1  0  0  0  0
  1  3  1  0  0  0  0
  1  4  1  0  0  0  0
  1  5  1  0  0  0  0
  5  6  1  0  0  0  0
  5  7  1  0  0  0  0
  5  8  1  0  0  0  0
  8  9  1  0  0  0  0
  8 10  1  0  0  0  0
  8 11  1  0  0  0  0
 11 12  1  0  0  0  0
 11 13  1  0  0  0  0
 11 14  1  0  0  0  0
 14 15  1  0  0  0  0
 14 16  1  0  0  0  0
 14 17  1  0  0  0  0
 17 18  1  0  0  0  0
 17 19  1  0  0  0  0
 17 20  1  0  0  0  0
M  END
> <VConfSearch Rank>
915

> <Conf_Id>
41

> <Delta U+W>
0.515

> <U+W>
-11.263

> <U>
46.486

> <W>
-57.749

> <W(PB)>
-59.685

> <W(SA)>
1.936

> <Valence>
1.806

> <Coulomb>
44.248

> <VdW>
0.433

> <VdW6>
-4.089

> <VdW12>
4.522

> <Bond>
0.131

> <Angle>
0.628

> <Pdih>
1.047

> <Idih>
0.000

> <Tether>
0.000

$$$$
VeraChem MOL file


 20 19  0  0  0  0  0  0  0  0999 V2000     
   18.4899   17.6275   24.0936 N   0  3  0  0  0  0  0  0  0  0  0  0
   18.0954   17.3968   25.0116 H   0  0  0  0  0  0  0  0  0  0  0  0
   17.8345   18.2713   23.6409 H   0  0  0  0  0  0  0  0  0  0  0  0
   18.4925   16.7622   23.5447 H   0  0  0  0  0  0  0  0  0  0  0  0
   19.8786   18.2255   24.2123 C   0  0  0  0  0  0  0  0  0  0  0  0
   20.5055   17.5026   24.7414 H   0  0  0  0  0  0  0  0  0  0  0  0
   19.8090   19.1279   24.8257 H   0  0  0  0  0  0  0  0  0  0  0  0
   20.5292   18.5681   22.8576 C   0  0  0  0  0  0  0  0  0  0  0  0
   21.5639   18.8788   23.0481 H   0  0  0  0  0  0  0  0  0  0  0  0
   20.5817   17.6637   22.2372 H   0  0  0  0  0  0  0  0  0  0  0  0
   19.7766   19.6904   22.0990 C   0  0  0  0  0  0  0  0  0  0  0  0
   19.7479   20.5989   22.7164 H   0  0  0  0  0  0  0  0  0  0  0  0
   18.7322   19.3895   21.9434 H   0  0  0  0  0  0  0  0  0  0  0  0
   20.3943   20.0229   20.7188 C   0  0  0  0  0  0  0  0  0  0  0  0
   20.4127   19.1200   20.0924 H   0  0  0  0  0  0  0  0  0  0  0  0
   19.7397   20.7400   20.2038 H   0  0  0  0  0  0  0  0  0  0  0  0
   21.8159   20.6235   20.8078 C   0  0  0  0  0  0  0  0  0  0  0  0
   22.5375   19.8975   21.2023 H   0  0  0  0  0  0  0  0  0  0  0  0
   22.1667   20.9285   19.8134 H   0  0  0  0  0  0  0  0  0  0  0  0
   21.8306   21.5103   21.4547 H   0  0  0  0  0  0  0  0  0  0  0  0
  1  2  1  0  0  0  0
  1  3  1  0  0  0  0
  1  4  1  0  0  0  0
  1  5  1  0  0  0  0
  5  6  1  0  0  0  0
  5  7  1  0  0  0  0
  5  8  1  0  0  0  0
  8  9  1  0  0  0  0
  8 10  1  0  0  0  0
  8 11  1  0  0  0  0
 11 12  1  0  0  0  0
 11 13  1  0  0  0  0
 11 14  1  0  0  0  0
 14 15  1  0  0  0  0
 14 16  1  0  0  0  0
 14 17  1  0  0  0  0
 17 18  1  0  0  0  0
 17 19  1  0  0  0  0
 17 20  1  0  0  0  0
M  END
> <VConfSearch Rank>
916

> <Conf_Id>
33

> <Delta U+W>
0.703

> <U+W>
-11.075

> <U>
47.080

> <W>
-58.154

> <W(PB)>
-60.053

> <W(SA)>
1.899

> <Valence>
1.943

> <Coulomb>
44.572

> <VdW>
0.565

> <VdW6>
-4.575

> <VdW12>
5.139

> <Bond>
0.158

> <Angle>
0.700

> <Pdih>
1.085

> <Idih>
0.000

> <Tether>
0.000

$$$$
VeraChem MOL file


 20 19  0  0  0  0  0  0  0  0999 V2000     
   21.9835   17.1081   22.9247 N   0  3  0  0  0  0  0  0  0  0  0  0
   22.9331   16.7240   22.8774 H   0  0  0  0  0  0  0  0  0  0  0  0
   21.5329   16.6876   23.7435 H   0  0  0  0  0  0  0  0  0  0  0  0
   21.4837   16.7701   22.0971 H   0  0  0  0  0  0  0  0  0  0  0  0
   21.9924   18.6228   23.0004 C   0  0  0  0  0  0  0  0  0  0  0  0
   22.5052   19.0046   22.1134 H   0  0  0  0  0  0  0  0  0  0  0  0
   22.5777   18.9063   23.8794 H   0  0  0  0  0  0  0  0  0  0  0  0
   20.5886   19.2517   23.0989 C   0  0  0  0  0  0  0  0  0  0  0  0
   20.0697   18.8533   23.9808 H   0  0  0  0  0  0  0  0  0  0  0  0
   20.7115   20.3289   23.2668 H   0  0  0  0  0  0  0  0  0  0  0  0
   19.7356   19.0138   21.8273 C   0  0  0  0  0  0  0  0  0  0  0  0
   19.6465   17.9349   21.6435 H   0  0  0  0  0  0  0  0  0  0  0  0
   20.2505   19.4349   20.9526 H   0  0  0  0  0  0  0  0  0  0  0  0
   18.3088   19.6071   21.9222 C   0  0  0  0  0  0  0  0  0  0  0  0
   17.7390   19.2973   21.0349 H   0  0  0  0  0  0  0  0  0  0  0  0
   17.7846   19.1786   22.7880 H   0  0  0  0  0  0  0  0  0  0  0  0
   18.2871   21.1502   22.0123 C   0  0  0  0  0  0  0  0  0  0  0  0
   18.8323   21.6028   21.1740 H   0  0  0  0  0  0  0  0  0  0  0  0
   17.2548   21.5221   21.9803 H   0  0  0  0  0  0  0  0  0  0  0  0
   18.7359   21.5068   22.9476 H   0  0  0  0  0  0  0  0  0  0  0  0
  1  2  1  0  0  0  0
  1  3  1  0  0  0  0
  1  4  1  0  0  0  0
  1  5  1  0  0  0  0
  5  6  1  0  0  0  0
  5  7  1  0  0  0  0
  5  8  1  0  0  0  0
  8  9  1  0  0  0  0
  8 10  1  0  0  0  0
  8 11  1  0  0  0  0
 11 12  1  0  0  0  0
 11 13  1  0  0  0  0
 11 14  1  0  0  0  0
 14 15  1  0  0  0  0
 14 16  1  0  0  0  0
 14 17  1  0  0  0  0
 17 18  1  0  0  0  0
 17 19  1  0  0  0  0
 17 20  1  0  0  0  0
M  END
> <VConfSearch Rank>
917

> <Conf_Id>
24

> <Delta U+W>
0.847

> <U+W>
-10.931

> <U>
47.080

> <W>
-58.011

> <W(PB)>
-59.914

> <W(SA)>
1.903

> <Valence>
1.943

> <Coulomb>
44.572

> <VdW>
0.565

> <VdW6>
-4.575

> <VdW12>
5.140

> <Bond>
0.158

> <Angle>
0.700

> <Pdih>
1.085

> <Idih>
0.000

> <Tether>
0.000

$$$$
VeraChem MOL file


 20 19  0  0  0  0  0  0  0  0999 V2000     
   19.7247   21.4590   24.0095 N   0  3  0  0  0  0  0  0  0  0  0  0
   20.2323   21.7346   24.8567 H   0  0  0  0  0  0  0  0  0  0  0  0
   20.0600   22.0628   23.2523 H   0  0  0  0  0  0  0  0  0  0  0  0
   18.7387   21.6908   24.1654 H   0  0  0  0  0  0  0  0  0  0  0  0
   19.9173   19.9902   23.6903 C   0  0  0  0  0  0  0  0  0  0  0  0
   19.5674   19.4092   24.5478 H   0  0  0  0  0  0  0  0  0  0  0  0
   20.9886   19.8110   23.5674 H   0  0  0  0  0  0  0  0  0  0  0  0
   19.1675   19.5432   22.4212 C   0  0  0  0  0  0  0  0  0  0  0  0
   18.0986   19.7658   22.5386 H   0  0  0  0  0  0  0  0  0  0  0  0
   19.5115   20.1321   21.5614 H   0  0  0  0  0  0  0  0  0  0  0  0
   19.3334   18.0310   22.1282 C   0  0  0  0  0  0  0  0  0  0  0  0
   18.7663   17.7796   21.2214 H   0  0  0  0  0  0  0  0  0  0  0  0
   18.8703   17.4571   22.9428 H   0  0  0  0  0  0  0  0  0  0  0  0
   20.7998   17.5584   21.9563 C   0  0  0  0  0  0  0  0  0  0  0  0
   21.3579   17.7047   22.8911 H   0  0  0  0  0  0  0  0  0  0  0  0
   20.7992   16.4748   21.7727 H   0  0  0  0  0  0  0  0  0  0  0  0
   21.5393   18.2597   20.7943 C   0  0  0  0  0  0  0  0  0  0  0  0
   22.5377   17.8250   20.6560 H   0  0  0  0  0  0  0  0  0  0  0  0
   20.9901   18.1456   19.8507 H   0  0  0  0  0  0  0  0  0  0  0  0
   21.6705   19.3314   20.9888 H   0  0  0  0  0  0  0  0  0  0  0  0
  1  2  1  0  0  0  0
  1  3  1  0  0  0  0
  1  4  1  0  0  0  0
  1  5  1  0  0  0  0
  5  6  1  0  0  0  0
  5  7  1  0  0  0  0
  5  8  1  0  0  0  0
  8  9  1  0  0  0  0
  8 10  1  0  0  0  0
  8 11  1  0  0  0  0
 11 12  1  0  0  0  0
 11 13  1  0  0  0  0
 11 14  1  0  0  0  0
 14 15  1  0  0  0  0
 14 16  1  0  0  0  0
 14 17  1  0  0  0  0
 17 18  1  0  0  0  0
 17 19  1  0  0  0  0
 17 20  1  0  0  0  0
M  END
> <VConfSearch Rank>
918

> <Conf_Id>
64

> <Delta U+W>
0.707

> <U+W>
-11.070

> <U>
47.077

> <W>
-58.148

> <W(PB)>
-60.054

> <W(SA)>
1.906

> <Valence>
2.039

> <Coulomb>
44.655

> <VdW>
0.383

> <VdW6>
-4.912

> <VdW12>
5.295

> <Bond>
0.159

> <Angle>
0.856

> <Pdih>
1.024

> <Idih>
0.000

> <Tether>
0.000

$$$$
VeraChem MOL file


 20 19  0  0  0  0  0  0  0  0999 V2000     
   19.1851   18.3634   24.9440 N   0  3  0  0  0  0  0  0  0  0  0  0
   19.8111   18.5569   25.7320 H   0  0  0  0  0  0  0  0  0  0  0  0
   18.5017   19.1263   24.9078 H   0  0  0  0  0  0  0  0  0  0  0  0
   18.6667   17.5105   25.1790 H   0  0  0  0  0  0  0  0  0  0  0  0
   19.9438   18.2202   23.6401 C   0  0  0  0  0  0  0  0  0  0  0  0
   19.2204   17.9860   22.8547 H   0  0  0  0  0  0  0  0  0  0  0  0
   20.6298   17.3746   23.7392 H   0  0  0  0  0  0  0  0  0  0  0  0
   20.7338   19.4859   23.2573 C   0  0  0  0  0  0  0  0  0  0  0  0
   20.0472   20.3372   23.1665 H   0  0  0  0  0  0  0  0  0  0  0  0
   21.4276   19.7357   24.0709 H   0  0  0  0  0  0  0  0  0  0  0  0
   21.5420   19.3147   21.9468 C   0  0  0  0  0  0  0  0  0  0  0  0
   22.3088   18.5425   22.0990 H   0  0  0  0  0  0  0  0  0  0  0  0
   22.0878   20.2457   21.7407 H   0  0  0  0  0  0  0  0  0  0  0  0
   20.6949   18.9381   20.7042 C   0  0  0  0  0  0  0  0  0  0  0  0
   21.3681   18.8248   19.8428 H   0  0  0  0  0  0  0  0  0  0  0  0
   20.2240   17.9563   20.8491 H   0  0  0  0  0  0  0  0  0  0  0  0
   19.6140   19.9868   20.3565 C   0  0  0  0  0  0  0  0  0  0  0  0
   20.0572   20.9826   20.2267 H   0  0  0  0  0  0  0  0  0  0  0  0
   19.1072   19.7205   19.4199 H   0  0  0  0  0  0  0  0  0  0  0  0
   18.8479   20.0503   21.1392 H   0  0  0  0  0  0  0  0  0  0  0  0
  1  2  1  0  0  0  0
  1  3  1  0  0  0  0
  1  4  1  0  0  0  0
  1  5  1  0  0  0  0
  5  6  1  0  0  0  0
  5  7  1  0  0  0  0
  5  8  1  0  0  0  0
  8  9  1  0  0  0  0
  8 10  1  0  0  0  0
  8 11  1  0  0  0  0
 11 12  1  0  0  0  0
 11 13  1  0  0  0  0
 11 14  1  0  0  0  0
 14 15  1  0  0  0  0
 14 16  1  0  0  0  0
 14 17  1  0  0  0  0
 17 18  1  0  0  0  0
 17 19  1  0  0  0  0
 17 20  1  0  0  0  0
M  END
> <VConfSearch Rank>
919

> <Conf_Id>
22

> <Delta U+W>
0.731

> <U+W>
-11.047

> <U>
47.078

> <W>
-58.125

> <W(PB)>
-60.031

> <W(SA)>
1.906

> <Valence>
2.039

> <Coulomb>
44.655

> <VdW>
0.383

> <VdW6>
-4.913

> <VdW12>
5.296

> <Bond>
0.159

> <Angle>
0.856

> <Pdih>
1.024

> <Idih>
0.000

> <Tether>
0.000

$$$$
VeraChem MOL file


 20 19  0  0  0  0  0  0  0  0999 V2000     
   17.5169   19.9122   22.3808 N   0  3  0  0  0  0  0  0  0  0  0  0
   17.5735   20.9112   22.1593 H   0  0  0  0  0  0  0  0  0  0  0  0
   17.0168   19.4604   21.6087 H   0  0  0  0  0  0  0  0  0  0  0  0
   16.9220   19.8249   23.2115 H   0  0  0  0  0  0  0  0  0  0  0  0
   18.8867   19.3027   22.6021 C   0  0  0  0  0  0  0  0  0  0  0  0
   18.7505   18.2489   22.8597 H   0  0  0  0  0  0  0  0  0  0  0  0
   19.3428   19.8127   23.4536 H   0  0  0  0  0  0  0  0  0  0  0  0
   19.8068   19.4225   21.3742 C   0  0  0  0  0  0  0  0  0  0  0  0
   19.2840   19.0123   20.5000 H   0  0  0  0  0  0  0  0  0  0  0  0
   19.9895   20.4832   21.1565 H   0  0  0  0  0  0  0  0  0  0  0  0
   21.1597   18.6825   21.5284 C   0  0  0  0  0  0  0  0  0  0  0  0
   21.6883   18.7584   20.5680 H   0  0  0  0  0  0  0  0  0  0  0  0
   20.9884   17.6091   21.6884 H   0  0  0  0  0  0  0  0  0  0  0  0
   22.0906   19.2467   22.6331 C   0  0  0  0  0  0  0  0  0  0  0  0
   23.1312   19.0406   22.3454 H   0  0  0  0  0  0  0  0  0  0  0  0
   22.0029   20.3410   22.6835 H   0  0  0  0  0  0  0  0  0  0  0  0
   21.8546   18.6247   24.0297 C   0  0  0  0  0  0  0  0  0  0  0  0
   20.8639   18.8643   24.4296 H   0  0  0  0  0  0  0  0  0  0  0  0
   21.9534   17.5320   23.9958 H   0  0  0  0  0  0  0  0  0  0  0  0
   22.5961   19.0024   24.7456 H   0  0  0  0  0  0  0  0  0  0  0  0
  1  2  1  0  0  0  0
  1  3  1  0  0  0  0
  1  4  1  0  0  0  0
  1  5  1  0  0  0  0
  5  6  1  0  0  0  0
  5  7  1  0  0  0  0
  5  8  1  0  0  0  0
  8  9  1  0  0  0  0
  8 10  1  0  0  0  0
  8 11  1  0  0  0  0
 11 12  1  0  0  0  0
 11 13  1  0  0  0  0
 11 14  1  0  0  0  0
 14 15  1  0  0  0  0
 14 16  1  0  0  0  0
 14 17  1  0  0  0  0
 17 18  1  0  0  0  0
 17 19  1  0  0  0  0
 17 20  1  0  0  0  0
M  END
> <VConfSearch Rank>
920

> <Conf_Id>
61

> <Delta U+W>
2.669

> <U+W>
-9.108

> <U>
48.916

> <W>
-58.025

> <W(PB)>
-59.935

> <W(SA)>
1.911

> <Valence>
3.785

> <Coulomb>
44.716

> <VdW>
0.415

> <VdW6>
-4.836

> <VdW12>
5.251

> <Bond>
0.175

> <Angle>
1.195

> <Pdih>
2.415

> <Idih>
0.000

> <Tether>
0.000

$$$$
VeraChem MOL file


 20 19  0  0  0  0  0  0  0  0999 V2000     
   20.0408   16.8216   22.9743 N   0  3  0  0  0  0  0  0  0  0  0  0
   19.8650   16.1513   23.7302 H   0  0  0  0  0  0  0  0  0  0  0  0
   20.3587   16.2791   22.1650 H   0  0  0  0  0  0  0  0  0  0  0  0
   20.8240   17.4097   23.2702 H   0  0  0  0  0  0  0  0  0  0  0  0
   18.8060   17.6414   22.6519 C   0  0  0  0  0  0  0  0  0  0  0  0
   18.4787   18.1513   23.5620 H   0  0  0  0  0  0  0  0  0  0  0  0
   18.0233   16.9359   22.3600 H   0  0  0  0  0  0  0  0  0  0  0  0
   19.0026   18.6688   21.5174 C   0  0  0  0  0  0  0  0  0  0  0  0
   19.5798   18.2195   20.6984 H   0  0  0  0  0  0  0  0  0  0  0  0
   18.0134   18.8963   21.0984 H   0  0  0  0  0  0  0  0  0  0  0  0
   19.6480   20.0061   21.9633 C   0  0  0  0  0  0  0  0  0  0  0  0
   19.0269   20.4707   22.7417 H   0  0  0  0  0  0  0  0  0  0  0  0
   19.6312   20.6955   21.1077 H   0  0  0  0  0  0  0  0  0  0  0  0
   21.1028   19.8779   22.4725 C   0  0  0  0  0  0  0  0  0  0  0  0
   21.1233   19.3162   23.4148 H   0  0  0  0  0  0  0  0  0  0  0  0
   21.7059   19.3181   21.7440 H   0  0  0  0  0  0  0  0  0  0  0  0
   21.7455   21.2610   22.7109 C   0  0  0  0  0  0  0  0  0  0  0  0
   22.7733   21.1525   23.0809 H   0  0  0  0  0  0  0  0  0  0  0  0
   21.7828   21.8455   21.7824 H   0  0  0  0  0  0  0  0  0  0  0  0
   21.1791   21.8367   23.4546 H   0  0  0  0  0  0  0  0  0  0  0  0
  1  2  1  0  0  0  0
  1  3  1  0  0  0  0
  1  4  1  0  0  0  0
  1  5  1  0  0  0  0
  5  6  1  0  0  0  0
  5  7  1  0  0  0  0
  5  8  1  0  0  0  0
  8  9  1  0  0  0  0
  8 10  1  0  0  0  0
  8 11  1  0  0  0  0
 11 12  1  0  0  0  0
 11 13  1  0  0  0  0
 11 14  1  0  0  0  0
 14 15  1  0  0  0  0
 14 16  1  0  0  0  0
 14 17  1  0  0  0  0
 17 18  1  0  0  0  0
 17 19  1  0  0  0  0
 17 20  1  0  0  0  0
M  END
> <VConfSearch Rank>
921

> <Conf_Id>
69

> <Delta U+W>
2.811

> <U+W>
-8.967

> <U>
49.216

> <W>
-58.183

> <W(PB)>
-60.064

> <W(SA)>
1.881

> <Valence>
2.929

> <Coulomb>
46.006

> <VdW>
0.281

> <VdW6>
-4.909

> <VdW12>
5.190

> <Bond>
0.156

> <Angle>
0.974

> <Pdih>
1.799

> <Idih>
0.000

> <Tether>
0.000

$$$$
VeraChem MOL file


 20 19  0  0  0  0  0  0  0  0999 V2000     
   19.1605   19.1975   20.3223 N   0  3  0  0  0  0  0  0  0  0  0  0
   19.0198   18.4044   20.9534 H   0  0  0  0  0  0  0  0  0  0  0  0
   18.3076   19.7647   20.3545 H   0  0  0  0  0  0  0  0  0  0  0  0
   19.2287   18.8178   19.3721 H   0  0  0  0  0  0  0  0  0  0  0  0
   20.3886   20.0067   20.6933 C   0  0  0  0  0  0  0  0  0  0  0  0
   20.4667   20.8181   19.9646 H   0  0  0  0  0  0  0  0  0  0  0  0
   21.2711   19.3703   20.5861 H   0  0  0  0  0  0  0  0  0  0  0  0
   20.3476   20.6108   22.1128 C   0  0  0  0  0  0  0  0  0  0  0  0
   21.0341   21.4677   22.1305 H   0  0  0  0  0  0  0  0  0  0  0  0
   19.3499   21.0207   22.3189 H   0  0  0  0  0  0  0  0  0  0  0  0
   20.7755   19.6369   23.2407 C   0  0  0  0  0  0  0  0  0  0  0  0
   20.8200   20.2024   24.1817 H   0  0  0  0  0  0  0  0  0  0  0  0
   21.7976   19.2817   23.0494 H   0  0  0  0  0  0  0  0  0  0  0  0
   19.8352   18.4237   23.4315 C   0  0  0  0  0  0  0  0  0  0  0  0
   18.7945   18.7669   23.5160 H   0  0  0  0  0  0  0  0  0  0  0  0
   19.8919   17.7628   22.5575 H   0  0  0  0  0  0  0  0  0  0  0  0
   20.2070   17.6086   24.6886 C   0  0  0  0  0  0  0  0  0  0  0  0
   20.1256   18.2213   25.5959 H   0  0  0  0  0  0  0  0  0  0  0  0
   19.5371   16.7467   24.8042 H   0  0  0  0  0  0  0  0  0  0  0  0
   21.2353   17.2295   24.6235 H   0  0  0  0  0  0  0  0  0  0  0  0
  1  2  1  0  0  0  0
  1  3  1  0  0  0  0
  1  4  1  0  0  0  0
  1  5  1  0  0  0  0
  5  6  1  0  0  0  0
  5  7  1  0  0  0  0
  5  8  1  0  0  0  0
  8  9  1  0  0  0  0
  8 10  1  0  0  0  0
  8 11  1  0  0  0  0
 11 12  1  0  0  0  0
 11 13  1  0  0  0  0
 11 14  1  0  0  0  0
 14 15  1  0  0  0  0
 14 16  1  0  0  0  0
 14 17  1  0  0  0  0
 17 18  1  0  0  0  0
 17 19  1  0  0  0  0
 17 20  1  0  0  0  0
M  END
> <VConfSearch Rank>
922

> <Conf_Id>
26

> <Delta U+W>
2.809

> <U+W>
-8.969

> <U>
49.216

> <W>
-58.185

> <W(PB)>
-60.088

> <W(SA)>
1.903

> <Valence>
2.929

> <Coulomb>
46.006

> <VdW>
0.281

> <VdW6>
-4.909

> <VdW12>
5.190

> <Bond>
0.156

> <Angle>
0.974

> <Pdih>
1.799

> <Idih>
0.000

> <Tether>
0.000

$$$$
VeraChem MOL file


 20 19  0  0  0  0  0  0  0  0999 V2000     
   21.5798   20.9642   23.2034 N   0  3  0  0  0  0  0  0  0  0  0  0
   22.0731   20.4666   22.4564 H   0  0  0  0  0  0  0  0  0  0  0  0
   21.3756   21.9064   22.8560 H   0  0  0  0  0  0  0  0  0  0  0  0
   22.2394   21.0694   23.9813 H   0  0  0  0  0  0  0  0  0  0  0  0
   20.3201   20.2343   23.6270 C   0  0  0  0  0  0  0  0  0  0  0  0
   19.8647   20.8020   24.4430 H   0  0  0  0  0  0  0  0  0  0  0  0
   20.6095   19.2545   24.0160 H   0  0  0  0  0  0  0  0  0  0  0  0
   19.2932   20.0594   22.4898 C   0  0  0  0  0  0  0  0  0  0  0  0
   18.3876   19.5939   22.8994 H   0  0  0  0  0  0  0  0  0  0  0  0
   18.9840   21.0495   22.1296 H   0  0  0  0  0  0  0  0  0  0  0  0
   19.8142   19.2207   21.2932 C   0  0  0  0  0  0  0  0  0  0  0  0
   20.6176   19.7713   20.7858 H   0  0  0  0  0  0  0  0  0  0  0  0
   19.0083   19.1226   20.5528 H   0  0  0  0  0  0  0  0  0  0  0  0
   20.3316   17.8077   21.6657 C   0  0  0  0  0  0  0  0  0  0  0  0
   20.6935   17.3148   20.7526 H   0  0  0  0  0  0  0  0  0  0  0  0
   21.2016   17.8845   22.3318 H   0  0  0  0  0  0  0  0  0  0  0  0
   19.2543   16.9133   22.3203 C   0  0  0  0  0  0  0  0  0  0  0  0
   18.3656   16.8335   21.6809 H   0  0  0  0  0  0  0  0  0  0  0  0
   19.6429   15.8996   22.4827 H   0  0  0  0  0  0  0  0  0  0  0  0
   18.9421   17.3071   23.2956 H   0  0  0  0  0  0  0  0  0  0  0  0
  1  2  1  0  0  0  0
  1  3  1  0  0  0  0
  1  4  1  0  0  0  0
  1  5  1  0  0  0  0
  5  6  1  0  0  0  0
  5  7  1  0  0  0  0
  5  8  1  0  0  0  0
  8  9  1  0  0  0  0
  8 10  1  0  0  0  0
  8 11  1  0  0  0  0
 11 12  1  0  0  0  0
 11 13  1  0  0  0  0
 11 14  1  0  0  0  0
 14 15  1  0  0  0  0
 14 16  1  0  0  0  0
 14 17  1  0  0  0  0
 17 18  1  0  0  0  0
 17 19  1  0  0  0  0
 17 20  1  0  0  0  0
M  END
> <VConfSearch Rank>
923

> <Conf_Id>
2

> <Delta U+W>
0.994

> <U+W>
-10.784

> <U>
47.562

> <W>
-58.346

> <W(PB)>
-60.221

> <W(SA)>
1.875

> <Valence>
2.149

> <Coulomb>
45.034

> <VdW>
0.378

> <VdW6>
-5.599

> <VdW12>
5.977

> <Bond>
0.185

> <Angle>
0.935

> <Pdih>
1.028

> <Idih>
0.000

> <Tether>
0.000

$$$$
VeraChem MOL file


 20 19  0  0  0  0  0  0  0  0999 V2000     
   20.5634   20.0430   24.6495 N   0  3  0  0  0  0  0  0  0  0  0  0
   19.7462   20.3875   25.1629 H   0  0  0  0  0  0  0  0  0  0  0  0
   20.5831   19.0250   24.7599 H   0  0  0  0  0  0  0  0  0  0  0  0
   21.3927   20.4132   25.1253 H   0  0  0  0  0  0  0  0  0  0  0  0
   20.5234   20.4482   23.1889 C   0  0  0  0  0  0  0  0  0  0  0  0
   21.4339   20.0800   22.7090 H   0  0  0  0  0  0  0  0  0  0  0  0
   20.5355   21.5407   23.1460 H   0  0  0  0  0  0  0  0  0  0  0  0
   19.2874   19.9200   22.4329 C   0  0  0  0  0  0  0  0  0  0  0  0
   18.3801   20.3228   22.9021 H   0  0  0  0  0  0  0  0  0  0  0  0
   19.2993   20.3212   21.4114 H   0  0  0  0  0  0  0  0  0  0  0  0
   19.1924   18.3723   22.3834 C   0  0  0  0  0  0  0  0  0  0  0  0
   18.3047   18.0911   21.8001 H   0  0  0  0  0  0  0  0  0  0  0  0
   19.0161   17.9863   23.3964 H   0  0  0  0  0  0  0  0  0  0  0  0
   20.4343   17.6633   21.7851 C   0  0  0  0  0  0  0  0  0  0  0  0
   21.3180   17.8527   22.4094 H   0  0  0  0  0  0  0  0  0  0  0  0
   20.2684   16.5774   21.8188 H   0  0  0  0  0  0  0  0  0  0  0  0
   20.7320   18.0760   20.3256 C   0  0  0  0  0  0  0  0  0  0  0  0
   21.0165   19.1333   20.2561 H   0  0  0  0  0  0  0  0  0  0  0  0
   21.5623   17.4834   19.9202 H   0  0  0  0  0  0  0  0  0  0  0  0
   19.8575   17.9119   19.6828 H   0  0  0  0  0  0  0  0  0  0  0  0
  1  2  1  0  0  0  0
  1  3  1  0  0  0  0
  1  4  1  0  0  0  0
  1  5  1  0  0  0  0
  5  6  1  0  0  0  0
  5  7  1  0  0  0  0
  5  8  1  0  0  0  0
  8  9  1  0  0  0  0
  8 10  1  0  0  0  0
  8 11  1  0  0  0  0
 11 12  1  0  0  0  0
 11 13  1  0  0  0  0
 11 14  1  0  0  0  0
 14 15  1  0  0  0  0
 14 16  1  0  0  0  0
 14 17  1  0  0  0  0
 17 18  1  0  0  0  0
 17 19  1  0  0  0  0
 17 20  1  0  0  0  0
M  END
> <VConfSearch Rank>
924

> <Conf_Id>
1

> <Delta U+W>
1.032

> <U+W>
-10.746

> <U>
47.562

> <W>
-58.308

> <W(PB)>
-60.184

> <W(SA)>
1.877

> <Valence>
2.149

> <Coulomb>
45.035

> <VdW>
0.378

> <VdW6>
-5.599

> <VdW12>
5.978

> <Bond>
0.185

> <Angle>
0.935

> <Pdih>
1.028

> <Idih>
0.000

> <Tether>
0.000

$$$$
VeraChem MOL file


 20 19  0  0  0  0  0  0  0  0999 V2000     
   22.3857   18.7992   23.3419 N   0  3  0  0  0  0  0  0  0  0  0  0
   22.5040   18.6998   24.3549 H   0  0  0  0  0  0  0  0  0  0  0  0
   22.0481   17.9000   22.9867 H   0  0  0  0  0  0  0  0  0  0  0  0
   23.3199   18.9459   22.9456 H   0  0  0  0  0  0  0  0  0  0  0  0
   21.4416   19.9334   22.9925 C   0  0  0  0  0  0  0  0  0  0  0  0
   21.3865   20.0021   21.9050 H   0  0  0  0  0  0  0  0  0  0  0  0
   21.8883   20.8591   23.3655 H   0  0  0  0  0  0  0  0  0  0  0  0
   20.0284   19.7759   23.5933 C   0  0  0  0  0  0  0  0  0  0  0  0
   20.1288   19.7006   24.6842 H   0  0  0  0  0  0  0  0  0  0  0  0
   19.4503   20.6907   23.4074 H   0  0  0  0  0  0  0  0  0  0  0  0
   19.2360   18.5452   23.0760 C   0  0  0  0  0  0  0  0  0  0  0  0
   18.4778   18.2921   23.8300 H   0  0  0  0  0  0  0  0  0  0  0  0
   19.8877   17.6644   23.0104 H   0  0  0  0  0  0  0  0  0  0  0  0
   18.4968   18.7585   21.7299 C   0  0  0  0  0  0  0  0  0  0  0  0
   17.9023   17.8589   21.5172 H   0  0  0  0  0  0  0  0  0  0  0  0
   17.7751   19.5813   21.8296 H   0  0  0  0  0  0  0  0  0  0  0  0
   19.4226   19.0308   20.5237 C   0  0  0  0  0  0  0  0  0  0  0  0
   20.2278   18.2874   20.4628 H   0  0  0  0  0  0  0  0  0  0  0  0
   18.8525   18.9847   19.5868 H   0  0  0  0  0  0  0  0  0  0  0  0
   19.8692   20.0305   20.5806 H   0  0  0  0  0  0  0  0  0  0  0  0
  1  2  1  0  0  0  0
  1  3  1  0  0  0  0
  1  4  1  0  0  0  0
  1  5  1  0  0  0  0
  5  6  1  0  0  0  0
  5  7  1  0  0  0  0
  5  8  1  0  0  0  0
  8  9  1  0  0  0  0
  8 10  1  0  0  0  0
  8 11  1  0  0  0  0
 11 12  1  0  0  0  0
 11 13  1  0  0  0  0
 11 14  1  0  0  0  0
 14 15  1  0  0  0  0
 14 16  1  0  0  0  0
 14 17  1  0  0  0  0
 17 18  1  0  0  0  0
 17 19  1  0  0  0  0
 17 20  1  0  0  0  0
M  END
> <VConfSearch Rank>
925

> <Conf_Id>
80

> <Delta U+W>
2.920

> <U+W>
-8.857

> <U>
49.434

> <W>
-58.292

> <W(PB)>
-60.170

> <W(SA)>
1.879

> <Valence>
3.798

> <Coulomb>
45.253

> <VdW>
0.384

> <VdW6>
-5.595

> <VdW12>
5.979

> <Bond>
0.198

> <Angle>
1.368

> <Pdih>
2.231

> <Idih>
0.000

> <Tether>
0.000

$$$$
VeraChem MOL file


 20 19  0  0  0  0  0  0  0  0999 V2000     
   22.2531   18.2270   21.9579 N   0  3  0  0  0  0  0  0  0  0  0  0
   22.6061   18.3084   20.9993 H   0  0  0  0  0  0  0  0  0  0  0  0
   23.0316   17.8913   22.5347 H   0  0  0  0  0  0  0  0  0  0  0  0
   21.5420   17.4901   21.9573 H   0  0  0  0  0  0  0  0  0  0  0  0
   21.7002   19.5432   22.4695 C   0  0  0  0  0  0  0  0  0  0  0  0
   22.5233   20.2630   22.4804 H   0  0  0  0  0  0  0  0  0  0  0  0
   21.3727   19.3927   23.4993 H   0  0  0  0  0  0  0  0  0  0  0  0
   20.5454   20.1086   21.6154 C   0  0  0  0  0  0  0  0  0  0  0  0
   20.2903   21.1160   21.9700 H   0  0  0  0  0  0  0  0  0  0  0  0
   20.9122   20.2357   20.5883 H   0  0  0  0  0  0  0  0  0  0  0  0
   19.2672   19.2278   21.5864 C   0  0  0  0  0  0  0  0  0  0  0  0
   19.5301   18.1665   21.4901 H   0  0  0  0  0  0  0  0  0  0  0  0
   18.7092   19.4747   20.6725 H   0  0  0  0  0  0  0  0  0  0  0  0
   18.3042   19.4283   22.7850 C   0  0  0  0  0  0  0  0  0  0  0  0
   17.9680   20.4740   22.8195 H   0  0  0  0  0  0  0  0  0  0  0  0
   17.4021   18.8264   22.6062 H   0  0  0  0  0  0  0  0  0  0  0  0
   18.8936   19.0327   24.1569 C   0  0  0  0  0  0  0  0  0  0  0  0
   19.6541   19.7501   24.4868 H   0  0  0  0  0  0  0  0  0  0  0  0
   18.1064   19.0221   24.9218 H   0  0  0  0  0  0  0  0  0  0  0  0
   19.3428   18.0317   24.1246 H   0  0  0  0  0  0  0  0  0  0  0  0
  1  2  1  0  0  0  0
  1  3  1  0  0  0  0
  1  4  1  0  0  0  0
  1  5  1  0  0  0  0
  5  6  1  0  0  0  0
  5  7  1  0  0  0  0
  5  8  1  0  0  0  0
  8  9  1  0  0  0  0
  8 10  1  0  0  0  0
  8 11  1  0  0  0  0
 11 12  1  0  0  0  0
 11 13  1  0  0  0  0
 11 14  1  0  0  0  0
 14 15  1  0  0  0  0
 14 16  1  0  0  0  0
 14 17  1  0  0  0  0
 17 18  1  0  0  0  0
 17 19  1  0  0  0  0
 17 20  1  0  0  0  0
M  END
> <VConfSearch Rank>
926

> <Conf_Id>
65

> <Delta U+W>
2.949

> <U+W>
-8.829

> <U>
49.435

> <W>
-58.263

> <W(PB)>
-60.125

> <W(SA)>
1.862

> <Valence>
3.797

> <Coulomb>
45.253

> <VdW>
0.384

> <VdW6>
-5.596

> <VdW12>
5.980

> <Bond>
0.198

> <Angle>
1.369

> <Pdih>
2.230

> <Idih>
0.000

> <Tether>
0.000

$$$$
VeraChem MOL file


 20 19  0  0  0  0  0  0  0  0999 V2000     
   18.6406   20.5432   22.5389 N   0  3  0  0  0  0  0  0  0  0  0  0
   17.6963   20.6017   22.9347 H   0  0  0  0  0  0  0  0  0  0  0  0
   19.2912   20.4069   23.3186 H   0  0  0  0  0  0  0  0  0  0  0  0
   18.8475   21.4578   22.1254 H   0  0  0  0  0  0  0  0  0  0  0  0
   18.7565   19.4260   21.5201 C   0  0  0  0  0  0  0  0  0  0  0  0
   18.0380   19.6430   20.7250 H   0  0  0  0  0  0  0  0  0  0  0  0
   18.4630   18.4862   21.9953 H   0  0  0  0  0  0  0  0  0  0  0  0
   20.1627   19.2843   20.9029 C   0  0  0  0  0  0  0  0  0  0  0  0
   20.0523   18.7793   19.9341 H   0  0  0  0  0  0  0  0  0  0  0  0
   20.5711   20.2781   20.6763 H   0  0  0  0  0  0  0  0  0  0  0  0
   21.1771   18.4687   21.7488 C   0  0  0  0  0  0  0  0  0  0  0  0
   22.1086   18.4021   21.1697 H   0  0  0  0  0  0  0  0  0  0  0  0
   20.8259   17.4333   21.8589 H   0  0  0  0  0  0  0  0  0  0  0  0
   21.5178   19.0653   23.1382 C   0  0  0  0  0  0  0  0  0  0  0  0
   22.5771   18.8663   23.3543 H   0  0  0  0  0  0  0  0  0  0  0  0
   21.4208   20.1592   23.1212 H   0  0  0  0  0  0  0  0  0  0  0  0
   20.6788   18.4529   24.2849 C   0  0  0  0  0  0  0  0  0  0  0  0
   19.6012   18.5456   24.1119 H   0  0  0  0  0  0  0  0  0  0  0  0
   20.9025   17.3841   24.3985 H   0  0  0  0  0  0  0  0  0  0  0  0
   20.9125   18.9423   25.2394 H   0  0  0  0  0  0  0  0  0  0  0  0
  1  2  1  0  0  0  0
  1  3  1  0  0  0  0
  1  4  1  0  0  0  0
  1  5  1  0  0  0  0
  5  6  1  0  0  0  0
  5  7  1  0  0  0  0
  5  8  1  0  0  0  0
  8  9  1  0  0  0  0
  8 10  1  0  0  0  0
  8 11  1  0  0  0  0
 11 12  1  0  0  0  0
 11 13  1  0  0  0  0
 11 14  1  0  0  0  0
 14 15  1  0  0  0  0
 14 16  1  0  0  0  0
 14 17  1  0  0  0  0
 17 18  1  0  0  0  0
 17 19  1  0  0  0  0
 17 20  1  0  0  0  0
M  END
> <VConfSearch Rank>
927

> <Conf_Id>
77

> <Delta U+W>
5.366

> <U+W>
-6.412

> <U>
51.542

> <W>
-57.954

> <W(PB)>
-59.811

> <W(SA)>
1.857

> <Valence>
5.347

> <Coulomb>
45.870

> <VdW>
0.325

> <VdW6>
-6.161

> <VdW12>
6.486

> <Bond>
0.201

> <Angle>
1.484

> <Pdih>
3.662

> <Idih>
0.000

> <Tether>
0.000

$$$$
VeraChem MOL file


 20 19  0  0  0  0  0  0  0  0999 V2000     
   20.8275   17.2658   21.8326 N   0  3  0  0  0  0  0  0  0  0  0  0
   20.0891   16.6302   21.5143 H   0  0  0  0  0  0  0  0  0  0  0  0
   20.8122   18.0840   21.2162 H   0  0  0  0  0  0  0  0  0  0  0  0
   21.7205   16.7850   21.6812 H   0  0  0  0  0  0  0  0  0  0  0  0
   20.6403   17.6634   23.2840 C   0  0  0  0  0  0  0  0  0  0  0  0
   21.4862   18.2851   23.5893 H   0  0  0  0  0  0  0  0  0  0  0  0
   20.6660   16.7427   23.8733 H   0  0  0  0  0  0  0  0  0  0  0  0
   19.3172   18.4041   23.5652 C   0  0  0  0  0  0  0  0  0  0  0  0
   18.4968   17.9203   23.0186 H   0  0  0  0  0  0  0  0  0  0  0  0
   19.0827   18.2754   24.6302 H   0  0  0  0  0  0  0  0  0  0  0  0
   19.3353   19.9272   23.2654 C   0  0  0  0  0  0  0  0  0  0  0  0
   20.0672   20.4279   23.9144 H   0  0  0  0  0  0  0  0  0  0  0  0
   18.3571   20.3314   23.5606 H   0  0  0  0  0  0  0  0  0  0  0  0
   19.5862   20.3120   21.7850 C   0  0  0  0  0  0  0  0  0  0  0  0
   19.2154   19.5247   21.1150 H   0  0  0  0  0  0  0  0  0  0  0  0
   18.9899   21.2048   21.5497 H   0  0  0  0  0  0  0  0  0  0  0  0
   21.0680   20.6412   21.4855 C   0  0  0  0  0  0  0  0  0  0  0  0
   21.2090   20.8533   20.4176 H   0  0  0  0  0  0  0  0  0  0  0  0
   21.3859   21.5317   22.0435 H   0  0  0  0  0  0  0  0  0  0  0  0
   21.7432   19.8238   21.7604 H   0  0  0  0  0  0  0  0  0  0  0  0
  1  2  1  0  0  0  0
  1  3  1  0  0  0  0
  1  4  1  0  0  0  0
  1  5  1  0  0  0  0
  5  6  1  0  0  0  0
  5  7  1  0  0  0  0
  5  8  1  0  0  0  0
  8  9  1  0  0  0  0
  8 10  1  0  0  0  0
  8 11  1  0  0  0  0
 11 12  1  0  0  0  0
 11 13  1  0  0  0  0
 11 14  1  0  0  0  0
 14 15  1  0  0  0  0
 14 16  1  0  0  0  0
 14 17  1  0  0  0  0
 17 18  1  0  0  0  0
 17 19  1  0  0  0  0
 17 20  1  0  0  0  0
M  END
> <VConfSearch Rank>
928

> <Conf_Id>
67

> <Delta U+W>
5.353

> <U+W>
-6.425

> <U>
51.541

> <W>
-57.966

> <W(PB)>
-59.821

> <W(SA)>
1.855

> <Valence>
5.347

> <Coulomb>
45.870

> <VdW>
0.325

> <VdW6>
-6.161

> <VdW12>
6.486

> <Bond>
0.201

> <Angle>
1.485

> <Pdih>
3.662

> <Idih>
0.000

> <Tether>
0.000

$$$$
VeraChem MOL file


 20 19  0  0  0  0  0  0  0  0999 V2000     
   18.2456   17.2364   24.2345 N   0  3  0  0  0  0  0  0  0  0  0  0
   18.4728   16.3442   23.7844 H   0  0  0  0  0  0  0  0  0  0  0  0
   18.0955   17.0376   25.2293 H   0  0  0  0  0  0  0  0  0  0  0  0
   17.3453   17.5450   23.8542 H   0  0  0  0  0  0  0  0  0  0  0  0
   19.3336   18.2702   24.0249 C   0  0  0  0  0  0  0  0  0  0  0  0
   20.2525   17.8900   24.4793 H   0  0  0  0  0  0  0  0  0  0  0  0
   19.0404   19.1810   24.5542 H   0  0  0  0  0  0  0  0  0  0  0  0
   19.5845   18.5919   22.5407 C   0  0  0  0  0  0  0  0  0  0  0  0
   19.8631   17.6717   22.0099 H   0  0  0  0  0  0  0  0  0  0  0  0
   18.6551   18.9582   22.0845 H   0  0  0  0  0  0  0  0  0  0  0  0
   20.6990   19.6483   22.3710 C   0  0  0  0  0  0  0  0  0  0  0  0
   21.6259   19.2807   22.8332 H   0  0  0  0  0  0  0  0  0  0  0  0
   20.4193   20.5657   22.9076 H   0  0  0  0  0  0  0  0  0  0  0  0
   20.9596   19.9792   20.8844 C   0  0  0  0  0  0  0  0  0  0  0  0
   21.2418   19.0644   20.3443 H   0  0  0  0  0  0  0  0  0  0  0  0
   20.0354   20.3493   20.4188 H   0  0  0  0  0  0  0  0  0  0  0  0
   22.0739   21.0348   20.7198 C   0  0  0  0  0  0  0  0  0  0  0  0
   23.0211   20.6791   21.1457 H   0  0  0  0  0  0  0  0  0  0  0  0
   22.2444   21.2563   19.6582 H   0  0  0  0  0  0  0  0  0  0  0  0
   21.8053   21.9741   21.2207 H   0  0  0  0  0  0  0  0  0  0  0  0
  1  2  1  0  0  0  0
  1  3  1  0  0  0  0
  1  4  1  0  0  0  0
  1  5  1  0  0  0  0
  5  6  1  0  0  0  0
  5  7  1  0  0  0  0
  5  8  1  0  0  0  0
  8  9  1  0  0  0  0
  8 10  1  0  0  0  0
  8 11  1  0  0  0  0
 11 12  1  0  0  0  0
 11 13  1  0  0  0  0
 11 14  1  0  0  0  0
 14 15  1  0  0  0  0
 14 16  1  0  0  0  0
 14 17  1  0  0  0  0
 17 18  1  0  0  0  0
 17 19  1  0  0  0  0
 17 20  1  0  0  0  0
M  END
> <VConfSearch Rank>
929

> <Conf_Id>
72

> <Delta U+W>
0.000

> <U+W>
-11.778

> <U>
45.772

> <W>
-57.550

> <W(PB)>
-59.511

> <W(SA)>
1.961

> <Valence>
1.299

> <Coulomb>
44.177

> <VdW>
0.297

> <VdW6>
-3.490

> <VdW12>
3.786

> <Bond>
0.096

> <Angle>
0.381

> <Pdih>
0.822

> <Idih>
0.000

> <Tether>
0.000

$$$$
VeraChem MOL file


 20 19  0  0  0  0  0  0  0  0999 V2000     
   19.4726   20.7631   24.9564 N   0  3  0  0  0  0  0  0  0  0  0  0
   20.4680   20.9387   25.1257 H   0  0  0  0  0  0  0  0  0  0  0  0
   19.0944   21.5951   24.4926 H   0  0  0  0  0  0  0  0  0  0  0  0
   19.0209   20.7037   25.8751 H   0  0  0  0  0  0  0  0  0  0  0  0
   19.2500   19.5075   24.1374 C   0  0  0  0  0  0  0  0  0  0  0  0
   18.1719   19.3664   24.0227 H   0  0  0  0  0  0  0  0  0  0  0  0
   19.6488   18.6607   24.7025 H   0  0  0  0  0  0  0  0  0  0  0  0
   19.9153   19.5637   22.7505 C   0  0  0  0  0  0  0  0  0  0  0  0
   19.5237   20.4246   22.1926 H   0  0  0  0  0  0  0  0  0  0  0  0
   20.9935   19.7232   22.8773 H   0  0  0  0  0  0  0  0  0  0  0  0
   19.6606   18.2647   21.9499 C   0  0  0  0  0  0  0  0  0  0  0  0
   18.5781   18.0819   21.8996 H   0  0  0  0  0  0  0  0  0  0  0  0
   20.0933   17.4086   22.4861 H   0  0  0  0  0  0  0  0  0  0  0  0
   20.2202   18.3083   20.5071 C   0  0  0  0  0  0  0  0  0  0  0  0
   19.9065   17.3967   19.9795 H   0  0  0  0  0  0  0  0  0  0  0  0
   19.7718   19.1492   19.9596 H   0  0  0  0  0  0  0  0  0  0  0  0
   21.7613   18.4124   20.4482 C   0  0  0  0  0  0  0  0  0  0  0  0
   22.2343   17.5982   21.0124 H   0  0  0  0  0  0  0  0  0  0  0  0
   22.1112   18.3479   19.4098 H   0  0  0  0  0  0  0  0  0  0  0  0
   22.1174   19.3663   20.8566 H   0  0  0  0  0  0  0  0  0  0  0  0
  1  2  1  0  0  0  0
  1  3  1  0  0  0  0
  1  4  1  0  0  0  0
  1  5  1  0  0  0  0
  5  6  1  0  0  0  0
  5  7  1  0  0  0  0
  5  8  1  0  0  0  0
  8  9  1  0  0  0  0
  8 10  1  0  0  0  0
  8 11  1  0  0  0  0
 11 12  1  0  0  0  0
 11 13  1  0  0  0  0
 11 14  1  0  0  0  0
 14 15  1  0  0  0  0
 14 16  1  0  0  0  0
 14 17  1  0  0  0  0
 17 18  1  0  0  0  0
 17 19  1  0  0  0  0
 17 20  1  0  0  0  0
M  END
> <VConfSearch Rank>
930

> <Conf_Id>
42

> <Delta U+W>
0.508

> <U+W>
-11.270

> <U>
46.486

> <W>
-57.756

> <W(PB)>
-59.705

> <W(SA)>
1.949

> <Valence>
1.806

> <Coulomb>
44.248

> <VdW>
0.433

> <VdW6>
-4.089

> <VdW12>
4.522

> <Bond>
0.131

> <Angle>
0.628

> <Pdih>
1.047

> <Idih>
0.000

> <Tether>
0.000

$$$$
VeraChem MOL file


 20 19  0  0  0  0  0  0  0  0999 V2000     
   19.3812   16.1760   22.1301 N   0  3  0  0  0  0  0  0  0  0  0  0
   18.9311   16.2676   21.2139 H   0  0  0  0  0  0  0  0  0  0  0  0
   20.3562   15.9089   21.9615 H   0  0  0  0  0  0  0  0  0  0  0  0
   18.9337   15.3838   22.6032 H   0  0  0  0  0  0  0  0  0  0  0  0
   19.2752   17.4503   22.9433 C   0  0  0  0  0  0  0  0  0  0  0  0
   19.7468   17.2719   23.9135 H   0  0  0  0  0  0  0  0  0  0  0  0
   18.2145   17.6568   23.1101 H   0  0  0  0  0  0  0  0  0  0  0  0
   19.9373   18.6607   22.2608 C   0  0  0  0  0  0  0  0  0  0  0  0
   20.9963   18.4356   22.0823 H   0  0  0  0  0  0  0  0  0  0  0  0
   19.4715   18.8265   21.2803 H   0  0  0  0  0  0  0  0  0  0  0  0
   19.8033   19.9377   23.1236 C   0  0  0  0  0  0  0  0  0  0  0  0
   20.3095   19.7881   24.0874 H   0  0  0  0  0  0  0  0  0  0  0  0
   18.7418   20.1032   23.3552 H   0  0  0  0  0  0  0  0  0  0  0  0
   20.3615   21.2084   22.4376 C   0  0  0  0  0  0  0  0  0  0  0  0
   19.8411   21.3753   21.4841 H   0  0  0  0  0  0  0  0  0  0  0  0
   20.1329   22.0789   23.0684 H   0  0  0  0  0  0  0  0  0  0  0  0
   21.8872   21.1562   22.1949 C   0  0  0  0  0  0  0  0  0  0  0  0
   22.1546   20.3748   21.4728 H   0  0  0  0  0  0  0  0  0  0  0  0
   22.2449   22.1127   21.7924 H   0  0  0  0  0  0  0  0  0  0  0  0
   22.4296   20.9620   23.1293 H   0  0  0  0  0  0  0  0  0  0  0  0
  1  2  1  0  0  0  0
  1  3  1  0  0  0  0
  1  4  1  0  0  0  0
  1  5  1  0  0  0  0
  5  6  1  0  0  0  0
  5  7  1  0  0  0  0
  5  8  1  0  0  0  0
  8  9  1  0  0  0  0
  8 10  1  0  0  0  0
  8 11  1  0  0  0  0
 11 12  1  0  0  0  0
 11 13  1  0  0  0  0
 11 14  1  0  0  0  0
 14 15  1  0  0  0  0
 14 16  1  0  0  0  0
 14 17  1  0  0  0  0
 17 18  1  0  0  0  0
 17 19  1  0  0  0  0
 17 20  1  0  0  0  0
M  END
> <VConfSearch Rank>
931

> <Conf_Id>
41

> <Delta U+W>
0.515

> <U+W>
-11.263

> <U>
46.486

> <W>
-57.749

> <W(PB)>
-59.685

> <W(SA)>
1.936

> <Valence>
1.806

> <Coulomb>
44.248

> <VdW>
0.433

> <VdW6>
-4.089

> <VdW12>
4.522

> <Bond>
0.131

> <Angle>
0.628

> <Pdih>
1.047

> <Idih>
0.000

> <Tether>
0.000

$$$$
VeraChem MOL file


 20 19  0  0  0  0  0  0  0  0999 V2000     
   17.9467   18.0131   21.2098 N   0  3  0  0  0  0  0  0  0  0  0  0
   16.9384   17.9666   21.0294 H   0  0  0  0  0  0  0  0  0  0  0  0
   18.3553   18.5925   20.4706 H   0  0  0  0  0  0  0  0  0  0  0  0
   18.3148   17.0644   21.0892 H   0  0  0  0  0  0  0  0  0  0  0  0
   18.2465   18.5641   22.5906 C   0  0  0  0  0  0  0  0  0  0  0  0
   17.7440   17.9217   23.3189 H   0  0  0  0  0  0  0  0  0  0  0  0
   17.8088   19.5636   22.6603 H   0  0  0  0  0  0  0  0  0  0  0  0
   19.7500   18.6320   22.9234 C   0  0  0  0  0  0  0  0  0  0  0  0
   19.8508   18.9282   23.9749 H   0  0  0  0  0  0  0  0  0  0  0  0
   20.1903   17.6299   22.8355 H   0  0  0  0  0  0  0  0  0  0  0  0
   20.5180   19.6313   22.0219 C   0  0  0  0  0  0  0  0  0  0  0  0
   20.0865   20.6358   22.1323 H   0  0  0  0  0  0  0  0  0  0  0  0
   20.3835   19.3514   20.9687 H   0  0  0  0  0  0  0  0  0  0  0  0
   22.0369   19.6860   22.3169 C   0  0  0  0  0  0  0  0  0  0  0  0
   22.4758   18.6859   22.1944 H   0  0  0  0  0  0  0  0  0  0  0  0
   22.5187   20.3265   21.5648 H   0  0  0  0  0  0  0  0  0  0  0  0
   22.3728   20.2330   23.7232 C   0  0  0  0  0  0  0  0  0  0  0  0
   22.0196   19.5595   24.5138 H   0  0  0  0  0  0  0  0  0  0  0  0
   23.4585   20.3407   23.8439 H   0  0  0  0  0  0  0  0  0  0  0  0
   21.9186   21.2195   23.8825 H   0  0  0  0  0  0  0  0  0  0  0  0
  1  2  1  0  0  0  0
  1  3  1  0  0  0  0
  1  4  1  0  0  0  0
  1  5  1  0  0  0  0
  5  6  1  0  0  0  0
  5  7  1  0  0  0  0
  5  8  1  0  0  0  0
  8  9  1  0  0  0  0
  8 10  1  0  0  0  0
  8 11  1  0  0  0  0
 11 12  1  0  0  0  0
 11 13  1  0  0  0  0
 11 14  1  0  0  0  0
 14 15  1  0  0  0  0
 14 16  1  0  0  0  0
 14 17  1  0  0  0  0
 17 18  1  0  0  0  0
 17 19  1  0  0  0  0
 17 20  1  0  0  0  0
M  END
> <VConfSearch Rank>
932

> <Conf_Id>
33

> <Delta U+W>
0.703

> <U+W>
-11.075

> <U>
47.080

> <W>
-58.154

> <W(PB)>
-60.053

> <W(SA)>
1.899

> <Valence>
1.943

> <Coulomb>
44.572

> <VdW>
0.565

> <VdW6>
-4.575

> <VdW12>
5.139

> <Bond>
0.158

> <Angle>
0.700

> <Pdih>
1.085

> <Idih>
0.000

> <Tether>
0.000

$$$$
VeraChem MOL file


 20 19  0  0  0  0  0  0  0  0999 V2000     
   17.7975   19.0438   21.0064 N   0  3  0  0  0  0  0  0  0  0  0  0
   17.2520   19.2450   20.1617 H   0  0  0  0  0  0  0  0  0  0  0  0
   17.3985   18.1972   21.4239 H   0  0  0  0  0  0  0  0  0  0  0  0
   17.6279   19.8130   21.6609 H   0  0  0  0  0  0  0  0  0  0  0  0
   19.2732   18.8796   20.6972 C   0  0  0  0  0  0  0  0  0  0  0  0
   19.6288   19.8046   20.2352 H   0  0  0  0  0  0  0  0  0  0  0  0
   19.3694   18.0746   19.9635 H   0  0  0  0  0  0  0  0  0  0  0  0
   20.1371   18.5503   21.9305 C   0  0  0  0  0  0  0  0  0  0  0  0
   19.7667   17.6306   22.4024 H   0  0  0  0  0  0  0  0  0  0  0  0
   21.1555   18.3369   21.5830 H   0  0  0  0  0  0  0  0  0  0  0  0
   20.1676   19.7036   22.9650 C   0  0  0  0  0  0  0  0  0  0  0  0
   19.1427   19.9376   23.2820 H   0  0  0  0  0  0  0  0  0  0  0  0
   20.5603   20.6144   22.4919 H   0  0  0  0  0  0  0  0  0  0  0  0
   21.0012   19.3769   24.2281 C   0  0  0  0  0  0  0  0  0  0  0  0
   20.8770   20.1938   24.9528 H   0  0  0  0  0  0  0  0  0  0  0  0
   20.6037   18.4741   24.7128 H   0  0  0  0  0  0  0  0  0  0  0  0
   22.5090   19.1925   23.9414 C   0  0  0  0  0  0  0  0  0  0  0  0
   22.9239   20.0696   23.4281 H   0  0  0  0  0  0  0  0  0  0  0  0
   23.0644   19.0590   24.8788 H   0  0  0  0  0  0  0  0  0  0  0  0
   22.6971   18.3086   23.3195 H   0  0  0  0  0  0  0  0  0  0  0  0
  1  2  1  0  0  0  0
  1  3  1  0  0  0  0
  1  4  1  0  0  0  0
  1  5  1  0  0  0  0
  5  6  1  0  0  0  0
  5  7  1  0  0  0  0
  5  8  1  0  0  0  0
  8  9  1  0  0  0  0
  8 10  1  0  0  0  0
  8 11  1  0  0  0  0
 11 12  1  0  0  0  0
 11 13  1  0  0  0  0
 11 14  1  0  0  0  0
 14 15  1  0  0  0  0
 14 16  1  0  0  0  0
 14 17  1  0  0  0  0
 17 18  1  0  0  0  0
 17 19  1  0  0  0  0
 17 20  1  0  0  0  0
M  END
> <VConfSearch Rank>
933

> <Conf_Id>
24

> <Delta U+W>
0.847

> <U+W>
-10.931

> <U>
47.080

> <W>
-58.011

> <W(PB)>
-59.914

> <W(SA)>
1.903

> <Valence>
1.943

> <Coulomb>
44.572

> <VdW>
0.565

> <VdW6>
-4.575

> <VdW12>
5.140

> <Bond>
0.158

> <Angle>
0.700

> <Pdih>
1.085

> <Idih>
0.000

> <Tether>
0.000

$$$$
VeraChem MOL file


 20 19  0  0  0  0  0  0  0  0999 V2000     
   18.0643   20.7123   21.4928 N   0  3  0  0  0  0  0  0  0  0  0  0
   17.2322   21.0333   21.9988 H   0  0  0  0  0  0  0  0  0  0  0  0
   18.6760   21.5266   21.3795 H   0  0  0  0  0  0  0  0  0  0  0  0
   17.7538   20.4360   20.5559 H   0  0  0  0  0  0  0  0  0  0  0  0
   18.7603   19.5771   22.2162 C   0  0  0  0  0  0  0  0  0  0  0  0
   18.0447   18.7580   22.3275 H   0  0  0  0  0  0  0  0  0  0  0  0
   19.0344   19.9322   23.2130 H   0  0  0  0  0  0  0  0  0  0  0  0
   20.0163   19.0712   21.4818 C   0  0  0  0  0  0  0  0  0  0  0  0
   19.7367   18.7560   20.4678 H   0  0  0  0  0  0  0  0  0  0  0  0
   20.7314   19.8949   21.3615 H   0  0  0  0  0  0  0  0  0  0  0  0
   20.6952   17.8814   22.2053 C   0  0  0  0  0  0  0  0  0  0  0  0
   21.5724   17.5648   21.6242 H   0  0  0  0  0  0  0  0  0  0  0  0
   20.0074   17.0244   22.2048 H   0  0  0  0  0  0  0  0  0  0  0  0
   21.1312   18.1700   23.6647 C   0  0  0  0  0  0  0  0  0  0  0  0
   20.2525   18.3858   24.2877 H   0  0  0  0  0  0  0  0  0  0  0  0
   21.5800   17.2582   24.0829 H   0  0  0  0  0  0  0  0  0  0  0  0
   22.1500   19.3262   23.7845 C   0  0  0  0  0  0  0  0  0  0  0  0
   22.4956   19.4282   24.8213 H   0  0  0  0  0  0  0  0  0  0  0  0
   23.0298   19.1442   23.1539 H   0  0  0  0  0  0  0  0  0  0  0  0
   21.7071   20.2855   23.4889 H   0  0  0  0  0  0  0  0  0  0  0  0
  1  2  1  0  0  0  0
  1  3  1  0  0  0  0
  1  4  1  0  0  0  0
  1  5  1  0  0  0  0
  5  6  1  0  0  0  0
  5  7  1  0  0  0  0
  5  8  1  0  0  0  0
  8  9  1  0  0  0  0
  8 10  1  0  0  0  0
  8 11  1  0  0  0  0
 11 12  1  0  0  0  0
 11 13  1  0  0  0  0
 11 14  1  0  0  0  0
 14 15  1  0  0  0  0
 14 16  1  0  0  0  0
 14 17  1  0  0  0  0
 17 18  1  0  0  0  0
 17 19  1  0  0  0  0
 17 20  1  0  0  0  0
M  END
> <VConfSearch Rank>
934

> <Conf_Id>
64

> <Delta U+W>
0.707

> <U+W>
-11.070

> <U>
47.077

> <W>
-58.148

> <W(PB)>
-60.054

> <W(SA)>
1.906

> <Valence>
2.039

> <Coulomb>
44.655

> <VdW>
0.383

> <VdW6>
-4.912

> <VdW12>
5.295

> <Bond>
0.159

> <Angle>
0.856

> <Pdih>
1.024

> <Idih>
0.000

> <Tether>
0.000

$$$$
VeraChem MOL file


 20 19  0  0  0  0  0  0  0  0999 V2000     
   22.6435   19.1334   23.7431 N   0  3  0  0  0  0  0  0  0  0  0  0
   23.3181   19.7779   23.3188 H   0  0  0  0  0  0  0  0  0  0  0  0
   22.2422   19.6102   24.5566 H   0  0  0  0  0  0  0  0  0  0  0  0
   23.1793   18.3354   24.1003 H   0  0  0  0  0  0  0  0  0  0  0  0
   21.5774   18.7000   22.7573 C   0  0  0  0  0  0  0  0  0  0  0  0
   20.9156   17.9949   23.2669 H   0  0  0  0  0  0  0  0  0  0  0  0
   22.0708   18.1757   21.9345 H   0  0  0  0  0  0  0  0  0  0  0  0
   20.7530   19.8764   22.2014 C   0  0  0  0  0  0  0  0  0  0  0  0
   20.2646   20.4091   23.0274 H   0  0  0  0  0  0  0  0  0  0  0  0
   21.4316   20.5986   21.7284 H   0  0  0  0  0  0  0  0  0  0  0  0
   19.6960   19.4290   21.1609 C   0  0  0  0  0  0  0  0  0  0  0  0
   20.2121   19.0115   20.2853 H   0  0  0  0  0  0  0  0  0  0  0  0
   19.1554   20.3144   20.7989 H   0  0  0  0  0  0  0  0  0  0  0  0
   18.6721   18.3871   21.6799 C   0  0  0  0  0  0  0  0  0  0  0  0
   17.9876   18.1300   20.8594 H   0  0  0  0  0  0  0  0  0  0  0  0
   19.1840   17.4529   21.9484 H   0  0  0  0  0  0  0  0  0  0  0  0
   17.8410   18.8886   22.8828 C   0  0  0  0  0  0  0  0  0  0  0  0
   17.3350   19.8336   22.6466 H   0  0  0  0  0  0  0  0  0  0  0  0
   17.0711   18.1537   23.1512 H   0  0  0  0  0  0  0  0  0  0  0  0
   18.4690   19.0463   23.7684 H   0  0  0  0  0  0  0  0  0  0  0  0
  1  2  1  0  0  0  0
  1  3  1  0  0  0  0
  1  4  1  0  0  0  0
  1  5  1  0  0  0  0
  5  6  1  0  0  0  0
  5  7  1  0  0  0  0
  5  8  1  0  0  0  0
  8  9  1  0  0  0  0
  8 10  1  0  0  0  0
  8 11  1  0  0  0  0
 11 12  1  0  0  0  0
 11 13  1  0  0  0  0
 11 14  1  0  0  0  0
 14 15  1  0  0  0  0
 14 16  1  0  0  0  0
 14 17  1  0  0  0  0
 17 18  1  0  0  0  0
 17 19  1  0  0  0  0
 17 20  1  0  0  0  0
M  END
> <VConfSearch Rank>
935

> <Conf_Id>
22

> <Delta U+W>
0.731

> <U+W>
-11.047

> <U>
47.078

> <W>
-58.125

> <W(PB)>
-60.031

> <W(SA)>
1.906

> <Valence>
2.039

> <Coulomb>
44.655

> <VdW>
0.383

> <VdW6>
-4.913

> <VdW12>
5.296

> <Bond>
0.159

> <Angle>
0.856

> <Pdih>
1.024

> <Idih>
0.000

> <Tether>
0.000

$$$$
VeraChem MOL file


 20 19  0  0  0  0  0  0  0  0999 V2000     
   20.9345   21.1056   20.6643 N   0  3  0  0  0  0  0  0  0  0  0  0
   21.9441   21.1661   20.8297 H   0  0  0  0  0  0  0  0  0  0  0  0
   20.8061   20.7995   19.6947 H   0  0  0  0  0  0  0  0  0  0  0  0
   20.5653   22.0602   20.7258 H   0  0  0  0  0  0  0  0  0  0  0  0
   20.2544   20.1739   21.6471 C   0  0  0  0  0  0  0  0  0  0  0  0
   19.1825   20.1785   21.4316 H   0  0  0  0  0  0  0  0  0  0  0  0
   20.4093   20.5792   22.6497 H   0  0  0  0  0  0  0  0  0  0  0  0
   20.7907   18.7327   21.5836 C   0  0  0  0  0  0  0  0  0  0  0  0
   20.7385   18.3821   20.5442 H   0  0  0  0  0  0  0  0  0  0  0  0
   21.8533   18.7256   21.8601 H   0  0  0  0  0  0  0  0  0  0  0  0
   20.0138   17.7333   22.4778 C   0  0  0  0  0  0  0  0  0  0  0  0
   20.4211   16.7314   22.2833 H   0  0  0  0  0  0  0  0  0  0  0  0
   18.9599   17.6897   22.1701 H   0  0  0  0  0  0  0  0  0  0  0  0
   20.1159   18.0042   24.0014 C   0  0  0  0  0  0  0  0  0  0  0  0
   20.0042   17.0470   24.5299 H   0  0  0  0  0  0  0  0  0  0  0  0
   21.1189   18.3741   24.2566 H   0  0  0  0  0  0  0  0  0  0  0  0
   19.0347   18.9703   24.5403 C   0  0  0  0  0  0  0  0  0  0  0  0
   19.1357   19.9794   24.1275 H   0  0  0  0  0  0  0  0  0  0  0  0
   18.0270   18.6048   24.3040 H   0  0  0  0  0  0  0  0  0  0  0  0
   19.1089   19.0550   25.6322 H   0  0  0  0  0  0  0  0  0  0  0  0
  1  2  1  0  0  0  0
  1  3  1  0  0  0  0
  1  4  1  0  0  0  0
  1  5  1  0  0  0  0
  5  6  1  0  0  0  0
  5  7  1  0  0  0  0
  5  8  1  0  0  0  0
  8  9  1  0  0  0  0
  8 10  1  0  0  0  0
  8 11  1  0  0  0  0
 11 12  1  0  0  0  0
 11 13  1  0  0  0  0
 11 14  1  0  0  0  0
 14 15  1  0  0  0  0
 14 16  1  0  0  0  0
 14 17  1  0  0  0  0
 17 18  1  0  0  0  0
 17 19  1  0  0  0  0
 17 20  1  0  0  0  0
M  END
> <VConfSearch Rank>
936

> <Conf_Id>
61

> <Delta U+W>
2.669

> <U+W>
-9.108

> <U>
48.916

> <W>
-58.025

> <W(PB)>
-59.935

> <W(SA)>
1.911

> <Valence>
3.785

> <Coulomb>
44.716

> <VdW>
0.415

> <VdW6>
-4.836

> <VdW12>
5.251

> <Bond>
0.175

> <Angle>
1.195

> <Pdih>
2.415

> <Idih>
0.000

> <Tether>
0.000

$$$$
VeraChem MOL file


 20 19  0  0  0  0  0  0  0  0999 V2000     
   22.0676   20.1030   21.7768 N   0  3  0  0  0  0  0  0  0  0  0  0
   22.4570   20.9459   21.3415 H   0  0  0  0  0  0  0  0  0  0  0  0
   22.8488   19.4553   21.9198 H   0  0  0  0  0  0  0  0  0  0  0  0
   21.4405   19.6733   21.0919 H   0  0  0  0  0  0  0  0  0  0  0  0
   21.3549   20.4206   23.0775 C   0  0  0  0  0  0  0  0  0  0  0  0
   20.5722   21.1568   22.8755 H   0  0  0  0  0  0  0  0  0  0  0  0
   22.0919   20.8841   23.7389 H   0  0  0  0  0  0  0  0  0  0  0  0
   20.7480   19.1919   23.7870 C   0  0  0  0  0  0  0  0  0  0  0  0
   21.4521   18.3500   23.7502 H   0  0  0  0  0  0  0  0  0  0  0  0
   20.6349   19.4428   24.8501 H   0  0  0  0  0  0  0  0  0  0  0  0
   19.3590   18.7588   23.2514 C   0  0  0  0  0  0  0  0  0  0  0  0
   18.6521   19.5943   23.3495 H   0  0  0  0  0  0  0  0  0  0  0  0
   18.9772   17.9582   23.9001 H   0  0  0  0  0  0  0  0  0  0  0  0
   19.3639   18.2563   21.7886 C   0  0  0  0  0  0  0  0  0  0  0  0
   19.5972   19.0841   21.1074 H   0  0  0  0  0  0  0  0  0  0  0  0
   20.1447   17.4940   21.6578 H   0  0  0  0  0  0  0  0  0  0  0  0
   17.9973   17.6605   21.3878 C   0  0  0  0  0  0  0  0  0  0  0  0
   18.0144   17.3178   20.3451 H   0  0  0  0  0  0  0  0  0  0  0  0
   17.7398   16.8006   22.0198 H   0  0  0  0  0  0  0  0  0  0  0  0
   17.1978   18.4067   21.4838 H   0  0  0  0  0  0  0  0  0  0  0  0
  1  2  1  0  0  0  0
  1  3  1  0  0  0  0
  1  4  1  0  0  0  0
  1  5  1  0  0  0  0
  5  6  1  0  0  0  0
  5  7  1  0  0  0  0
  5  8  1  0  0  0  0
  8  9  1  0  0  0  0
  8 10  1  0  0  0  0
  8 11  1  0  0  0  0
 11 12  1  0  0  0  0
 11 13  1  0  0  0  0
 11 14  1  0  0  0  0
 14 15  1  0  0  0  0
 14 16  1  0  0  0  0
 14 17  1  0  0  0  0
 17 18  1  0  0  0  0
 17 19  1  0  0  0  0
 17 20  1  0  0  0  0
M  END
> <VConfSearch Rank>
937

> <Conf_Id>
69

> <Delta U+W>
2.811

> <U+W>
-8.967

> <U>
49.216

> <W>
-58.183

> <W(PB)>
-60.064

> <W(SA)>
1.881

> <Valence>
2.929

> <Coulomb>
46.006

> <VdW>
0.281

> <VdW6>
-4.909

> <VdW12>
5.190

> <Bond>
0.156

> <Angle>
0.974

> <Pdih>
1.799

> <Idih>
0.000

> <Tether>
0.000

$$$$
VeraChem MOL file


 20 19  0  0  0  0  0  0  0  0999 V2000     
   21.3463   17.9509   20.9481 N   0  3  0  0  0  0  0  0  0  0  0  0
   20.8253   17.4965   21.7025 H   0  0  0  0  0  0  0  0  0  0  0  0
   20.8031   17.8269   20.0879 H   0  0  0  0  0  0  0  0  0  0  0  0
   22.2189   17.4262   20.8261 H   0  0  0  0  0  0  0  0  0  0  0  0
   21.6081   19.4158   21.2418 C   0  0  0  0  0  0  0  0  0  0  0  0
   22.1755   19.8132   20.3958 H   0  0  0  0  0  0  0  0  0  0  0  0
   22.2373   19.4857   22.1331 H   0  0  0  0  0  0  0  0  0  0  0  0
   20.3333   20.2642   21.4324 C   0  0  0  0  0  0  0  0  0  0  0  0
   20.5961   21.3111   21.2305 H   0  0  0  0  0  0  0  0  0  0  0  0
   19.5832   19.9917   20.6781 H   0  0  0  0  0  0  0  0  0  0  0  0
   19.7195   20.1951   22.8545 C   0  0  0  0  0  0  0  0  0  0  0  0
   18.8953   20.9201   22.9065 H   0  0  0  0  0  0  0  0  0  0  0  0
   20.4643   20.5266   23.5913 H   0  0  0  0  0  0  0  0  0  0  0  0
   19.1834   18.8006   23.2547 C   0  0  0  0  0  0  0  0  0  0  0  0
   18.5192   18.4155   22.4682 H   0  0  0  0  0  0  0  0  0  0  0  0
   20.0155   18.0926   23.3559 H   0  0  0  0  0  0  0  0  0  0  0  0
   18.4145   18.8496   24.5924 C   0  0  0  0  0  0  0  0  0  0  0  0
   17.5463   19.5182   24.5256 H   0  0  0  0  0  0  0  0  0  0  0  0
   18.0494   17.8514   24.8667 H   0  0  0  0  0  0  0  0  0  0  0  0
   19.0595   19.2074   25.4056 H   0  0  0  0  0  0  0  0  0  0  0  0
  1  2  1  0  0  0  0
  1  3  1  0  0  0  0
  1  4  1  0  0  0  0
  1  5  1  0  0  0  0
  5  6  1  0  0  0  0
  5  7  1  0  0  0  0
  5  8  1  0  0  0  0
  8  9  1  0  0  0  0
  8 10  1  0  0  0  0
  8 11  1  0  0  0  0
 11 12  1  0  0  0  0
 11 13  1  0  0  0  0
 11 14  1  0  0  0  0
 14 15  1  0  0  0  0
 14 16  1  0  0  0  0
 14 17  1  0  0  0  0
 17 18  1  0  0  0  0
 17 19  1  0  0  0  0
 17 20  1  0  0  0  0
M  END
> <VConfSearch Rank>
938

> <Conf_Id>
26

> <Delta U+W>
2.809

> <U+W>
-8.969

> <U>
49.216

> <W>
-58.185

> <W(PB)>
-60.088

> <W(SA)>
1.903

> <Valence>
2.929

> <Coulomb>
46.006

> <VdW>
0.281

> <VdW6>
-4.909

> <VdW12>
5.190

> <Bond>
0.156

> <Angle>
0.974

> <Pdih>
1.799

> <Idih>
0.000

> <Tether>
0.000

$$$$
VeraChem MOL file


 20 19  0  0  0  0  0  0  0  0999 V2000     
   22.4215   19.8962   22.7503 N   0  3  0  0  0  0  0  0  0  0  0  0
   22.3326   19.5513   21.7901 H   0  0  0  0  0  0  0  0  0  0  0  0
   22.6060   20.9026   22.6947 H   0  0  0  0  0  0  0  0  0  0  0  0
   23.2595   19.4608   23.1498 H   0  0  0  0  0  0  0  0  0  0  0  0
   21.1833   19.5945   23.5717 C   0  0  0  0  0  0  0  0  0  0  0  0
   21.3597   19.9604   24.5868 H   0  0  0  0  0  0  0  0  0  0  0  0
   21.0628   18.5091   23.6189 H   0  0  0  0  0  0  0  0  0  0  0  0
   19.8973   20.2364   23.0127 C   0  0  0  0  0  0  0  0  0  0  0  0
   19.0704   20.0327   23.7050 H   0  0  0  0  0  0  0  0  0  0  0  0
   20.0162   21.3279   23.0014 H   0  0  0  0  0  0  0  0  0  0  0  0
   19.5168   19.7497   21.5895 C   0  0  0  0  0  0  0  0  0  0  0  0
   20.2712   20.0994   20.8720 H   0  0  0  0  0  0  0  0  0  0  0  0
   18.5764   20.2327   21.2904 H   0  0  0  0  0  0  0  0  0  0  0  0
   19.3625   18.2138   21.4472 C   0  0  0  0  0  0  0  0  0  0  0  0
   19.1157   17.9816   20.4017 H   0  0  0  0  0  0  0  0  0  0  0  0
   20.3202   17.7149   21.6487 H   0  0  0  0  0  0  0  0  0  0  0  0
   18.2661   17.6205   22.3609 C   0  0  0  0  0  0  0  0  0  0  0  0
   17.3006   18.1143   22.1908 H   0  0  0  0  0  0  0  0  0  0  0  0
   18.1354   16.5495   22.1591 H   0  0  0  0  0  0  0  0  0  0  0  0
   18.5248   17.7270   23.4217 H   0  0  0  0  0  0  0  0  0  0  0  0
  1  2  1  0  0  0  0
  1  3  1  0  0  0  0
  1  4  1  0  0  0  0
  1  5  1  0  0  0  0
  5  6  1  0  0  0  0
  5  7  1  0  0  0  0
  5  8  1  0  0  0  0
  8  9  1  0  0  0  0
  8 10  1  0  0  0  0
  8 11  1  0  0  0  0
 11 12  1  0  0  0  0
 11 13  1  0  0  0  0
 11 14  1  0  0  0  0
 14 15  1  0  0  0  0
 14 16  1  0  0  0  0
 14 17  1  0  0  0  0
 17 18  1  0  0  0  0
 17 19  1  0  0  0  0
 17 20  1  0  0  0  0
M  END
> <VConfSearch Rank>
939

> <Conf_Id>
2

> <Delta U+W>
0.994

> <U+W>
-10.784

> <U>
47.562

> <W>
-58.346

> <W(PB)>
-60.221

> <W(SA)>
1.875

> <Valence>
2.149

> <Coulomb>
45.034

> <VdW>
0.378

> <VdW6>
-5.599

> <VdW12>
5.977

> <Bond>
0.185

> <Angle>
0.935

> <Pdih>
1.028

> <Idih>
0.000

> <Tether>
0.000

$$$$
VeraChem MOL file


 20 19  0  0  0  0  0  0  0  0999 V2000     
   17.8320   19.6253   22.7515 N   0  3  0  0  0  0  0  0  0  0  0  0
   17.6073   20.4317   23.3424 H   0  0  0  0  0  0  0  0  0  0  0  0
   18.1153   19.9897   21.8372 H   0  0  0  0  0  0  0  0  0  0  0  0
   16.9592   19.1059   22.6109 H   0  0  0  0  0  0  0  0  0  0  0  0
   18.9115   18.7575   23.3685 C   0  0  0  0  0  0  0  0  0  0  0  0
   19.0792   17.9026   22.7082 H   0  0  0  0  0  0  0  0  0  0  0  0
   18.5311   18.3802   24.3216 H   0  0  0  0  0  0  0  0  0  0  0  0
   20.2423   19.4994   23.6064 C   0  0  0  0  0  0  0  0  0  0  0  0
   20.0692   20.3352   24.2973 H   0  0  0  0  0  0  0  0  0  0  0  0
   20.9367   18.8239   24.1222 H   0  0  0  0  0  0  0  0  0  0  0  0
   20.9049   20.0371   22.3107 C   0  0  0  0  0  0  0  0  0  0  0  0
   21.8572   20.5177   22.5738 H   0  0  0  0  0  0  0  0  0  0  0  0
   20.2786   20.8329   21.8855 H   0  0  0  0  0  0  0  0  0  0  0  0
   21.1646   18.9661   21.2205 C   0  0  0  0  0  0  0  0  0  0  0  0
   20.2142   18.5394   20.8724 H   0  0  0  0  0  0  0  0  0  0  0  0
   21.6127   19.4578   20.3457 H   0  0  0  0  0  0  0  0  0  0  0  0
   22.1029   17.8304   21.6880 C   0  0  0  0  0  0  0  0  0  0  0  0
   21.6471   17.2354   22.4891 H   0  0  0  0  0  0  0  0  0  0  0  0
   22.3257   17.1490   20.8568 H   0  0  0  0  0  0  0  0  0  0  0  0
   23.0555   18.2321   22.0570 H   0  0  0  0  0  0  0  0  0  0  0  0
  1  2  1  0  0  0  0
  1  3  1  0  0  0  0
  1  4  1  0  0  0  0
  1  5  1  0  0  0  0
  5  6  1  0  0  0  0
  5  7  1  0  0  0  0
  5  8  1  0  0  0  0
  8  9  1  0  0  0  0
  8 10  1  0  0  0  0
  8 11  1  0  0  0  0
 11 12  1  0  0  0  0
 11 13  1  0  0  0  0
 11 14  1  0  0  0  0
 14 15  1  0  0  0  0
 14 16  1  0  0  0  0
 14 17  1  0  0  0  0
 17 18  1  0  0  0  0
 17 19  1  0  0  0  0
 17 20  1  0  0  0  0
M  END
> <VConfSearch Rank>
940

> <Conf_Id>
1

> <Delta U+W>
1.032

> <U+W>
-10.746

> <U>
47.562

> <W>
-58.308

> <W(PB)>
-60.184

> <W(SA)>
1.877

> <Valence>
2.149

> <Coulomb>
45.035

> <VdW>
0.378

> <VdW6>
-5.599

> <VdW12>
5.978

> <Bond>
0.185

> <Angle>
0.935

> <Pdih>
1.028

> <Idih>
0.000

> <Tether>
0.000

$$$$
VeraChem MOL file


 20 19  0  0  0  0  0  0  0  0999 V2000     
   21.2906   17.0903   22.9693 N   0  3  0  0  0  0  0  0  0  0  0  0
   21.3748   16.7986   23.9481 H   0  0  0  0  0  0  0  0  0  0  0  0
   20.3310   16.8878   22.6745 H   0  0  0  0  0  0  0  0  0  0  0  0
   21.9068   16.4800   22.4224 H   0  0  0  0  0  0  0  0  0  0  0  0
   21.6399   18.5544   22.7846 C   0  0  0  0  0  0  0  0  0  0  0  0
   21.5597   18.7876   21.7218 H   0  0  0  0  0  0  0  0  0  0  0  0
   22.6852   18.6822   23.0787 H   0  0  0  0  0  0  0  0  0  0  0  0
   20.7603   19.5147   23.6134 C   0  0  0  0  0  0  0  0  0  0  0  0
   20.8614   19.2408   24.6720 H   0  0  0  0  0  0  0  0  0  0  0  0
   21.1562   20.5353   23.5282 H   0  0  0  0  0  0  0  0  0  0  0  0
   19.2547   19.5071   23.2345 C   0  0  0  0  0  0  0  0  0  0  0  0
   18.6871   19.8652   24.1045 H   0  0  0  0  0  0  0  0  0  0  0  0
   18.9045   18.4817   23.0595 H   0  0  0  0  0  0  0  0  0  0  0  0
   18.8758   20.4088   22.0315 C   0  0  0  0  0  0  0  0  0  0  0  0
   17.7825   20.3928   21.9202 H   0  0  0  0  0  0  0  0  0  0  0  0
   19.1420   21.4521   22.2518 H   0  0  0  0  0  0  0  0  0  0  0  0
   19.5115   19.9893   20.6877 C   0  0  0  0  0  0  0  0  0  0  0  0
   19.3614   18.9199   20.4917 H   0  0  0  0  0  0  0  0  0  0  0  0
   19.0575   20.5486   19.8595 H   0  0  0  0  0  0  0  0  0  0  0  0
   20.5867   20.2035   20.6702 H   0  0  0  0  0  0  0  0  0  0  0  0
  1  2  1  0  0  0  0
  1  3  1  0  0  0  0
  1  4  1  0  0  0  0
  1  5  1  0  0  0  0
  5  6  1  0  0  0  0
  5  7  1  0  0  0  0
  5  8  1  0  0  0  0
  8  9  1  0  0  0  0
  8 10  1  0  0  0  0
  8 11  1  0  0  0  0
 11 12  1  0  0  0  0
 11 13  1  0  0  0  0
 11 14  1  0  0  0  0
 14 15  1  0  0  0  0
 14 16  1  0  0  0  0
 14 17  1  0  0  0  0
 17 18  1  0  0  0  0
 17 19  1  0  0  0  0
 17 20  1  0  0  0  0
M  END
> <VConfSearch Rank>
941

> <Conf_Id>
80

> <Delta U+W>
2.920

> <U+W>
-8.857

> <U>
49.434

> <W>
-58.292

> <W(PB)>
-60.170

> <W(SA)>
1.879

> <Valence>
3.798

> <Coulomb>
45.253

> <VdW>
0.384

> <VdW6>
-5.595

> <VdW12>
5.979

> <Bond>
0.198

> <Angle>
1.368

> <Pdih>
2.231

> <Idih>
0.000

> <Tether>
0.000

$$$$
VeraChem MOL file


 20 19  0  0  0  0  0  0  0  0999 V2000     
   18.3082   20.1251   23.4991 N   0  3  0  0  0  0  0  0  0  0  0  0
   17.3912   19.7115   23.3038 H   0  0  0  0  0  0  0  0  0  0  0  0
   18.1867   20.7553   24.2987 H   0  0  0  0  0  0  0  0  0  0  0  0
   18.5553   20.7077   22.6940 H   0  0  0  0  0  0  0  0  0  0  0  0
   19.3586   19.0658   23.7718 C   0  0  0  0  0  0  0  0  0  0  0  0
   19.0470   18.5165   24.6644 H   0  0  0  0  0  0  0  0  0  0  0  0
   20.2967   19.5737   24.0010 H   0  0  0  0  0  0  0  0  0  0  0  0
   19.5568   18.0702   22.6089 C   0  0  0  0  0  0  0  0  0  0  0  0
   20.2308   17.2652   22.9303 H   0  0  0  0  0  0  0  0  0  0  0  0
   18.5910   17.5894   22.4041 H   0  0  0  0  0  0  0  0  0  0  0  0
   20.0909   18.7030   21.2956 C   0  0  0  0  0  0  0  0  0  0  0  0
   19.5935   19.6610   21.0970 H   0  0  0  0  0  0  0  0  0  0  0  0
   19.8020   18.0458   20.4638 H   0  0  0  0  0  0  0  0  0  0  0  0
   21.6297   18.8818   21.2313 C   0  0  0  0  0  0  0  0  0  0  0  0
   22.1211   17.9043   21.3350 H   0  0  0  0  0  0  0  0  0  0  0  0
   21.8922   19.2474   20.2285 H   0  0  0  0  0  0  0  0  0  0  0  0
   22.2079   19.8609   22.2768 C   0  0  0  0  0  0  0  0  0  0  0  0
   22.1742   19.4334   23.2859 H   0  0  0  0  0  0  0  0  0  0  0  0
   23.2601   20.0798   22.0539 H   0  0  0  0  0  0  0  0  0  0  0  0
   21.6607   20.8124   22.2780 H   0  0  0  0  0  0  0  0  0  0  0  0
  1  2  1  0  0  0  0
  1  3  1  0  0  0  0
  1  4  1  0  0  0  0
  1  5  1  0  0  0  0
  5  6  1  0  0  0  0
  5  7  1  0  0  0  0
  5  8  1  0  0  0  0
  8  9  1  0  0  0  0
  8 10  1  0  0  0  0
  8 11  1  0  0  0  0
 11 12  1  0  0  0  0
 11 13  1  0  0  0  0
 11 14  1  0  0  0  0
 14 15  1  0  0  0  0
 14 16  1  0  0  0  0
 14 17  1  0  0  0  0
 17 18  1  0  0  0  0
 17 19  1  0  0  0  0
 17 20  1  0  0  0  0
M  END
> <VConfSearch Rank>
942

> <Conf_Id>
65

> <Delta U+W>
2.949

> <U+W>
-8.829

> <U>
49.435

> <W>
-58.263

> <W(PB)>
-60.125

> <W(SA)>
1.862

> <Valence>
3.797

> <Coulomb>
45.253

> <VdW>
0.384

> <VdW6>
-5.596

> <VdW12>
5.980

> <Bond>
0.198

> <Angle>
1.369

> <Pdih>
2.230

> <Idih>
0.000

> <Tether>
0.000

$$$$
VeraChem MOL file


 20 19  0  0  0  0  0  0  0  0999 V2000     
   19.0124   17.8388   23.3180 N   0  3  0  0  0  0  0  0  0  0  0  0
   18.5369   16.9708   23.0492 H   0  0  0  0  0  0  0  0  0  0  0  0
   20.0128   17.7074   23.1402 H   0  0  0  0  0  0  0  0  0  0  0  0
   18.8936   17.9423   24.3308 H   0  0  0  0  0  0  0  0  0  0  0  0
   18.4690   19.0363   22.5627 C   0  0  0  0  0  0  0  0  0  0  0  0
   17.4052   19.1104   22.8043 H   0  0  0  0  0  0  0  0  0  0  0  0
   18.5608   18.8456   21.4902 H   0  0  0  0  0  0  0  0  0  0  0  0
   19.1601   20.3681   22.9191 C   0  0  0  0  0  0  0  0  0  0  0  0
   18.4650   21.1813   22.6715 H   0  0  0  0  0  0  0  0  0  0  0  0
   19.3146   20.4281   24.0046 H   0  0  0  0  0  0  0  0  0  0  0  0
   20.4935   20.6417   22.1726 C   0  0  0  0  0  0  0  0  0  0  0  0
   20.8423   21.6379   22.4784 H   0  0  0  0  0  0  0  0  0  0  0  0
   20.3094   20.7147   21.0918 H   0  0  0  0  0  0  0  0  0  0  0  0
   21.6329   19.6284   22.4508 C   0  0  0  0  0  0  0  0  0  0  0  0
   22.5894   20.1701   22.4561 H   0  0  0  0  0  0  0  0  0  0  0  0
   21.5304   19.2014   23.4575 H   0  0  0  0  0  0  0  0  0  0  0  0
   21.7279   18.5126   21.3832 C   0  0  0  0  0  0  0  0  0  0  0  0
   20.7865   17.9659   21.2628 H   0  0  0  0  0  0  0  0  0  0  0  0
   21.9893   18.9361   20.4046 H   0  0  0  0  0  0  0  0  0  0  0  0
   22.5092   17.7885   21.6487 H   0  0  0  0  0  0  0  0  0  0  0  0
  1  2  1  0  0  0  0
  1  3  1  0  0  0  0
  1  4  1  0  0  0  0
  1  5  1  0  0  0  0
  5  6  1  0  0  0  0
  5  7  1  0  0  0  0
  5  8  1  0  0  0  0
  8  9  1  0  0  0  0
  8 10  1  0  0  0  0
  8 11  1  0  0  0  0
 11 12  1  0  0  0  0
 11 13  1  0  0  0  0
 11 14  1  0  0  0  0
 14 15  1  0  0  0  0
 14 16  1  0  0  0  0
 14 17  1  0  0  0  0
 17 18  1  0  0  0  0
 17 19  1  0  0  0  0
 17 20  1  0  0  0  0
M  END
> <VConfSearch Rank>
943

> <Conf_Id>
77

> <Delta U+W>
5.366

> <U+W>
-6.412

> <U>
51.542

> <W>
-57.954

> <W(PB)>
-59.811

> <W(SA)>
1.857

> <Valence>
5.347

> <Coulomb>
45.870

> <VdW>
0.325

> <VdW6>
-6.161

> <VdW12>
6.486

> <Bond>
0.201

> <Angle>
1.484

> <Pdih>
3.662

> <Idih>
0.000

> <Tether>
0.000

$$$$
VeraChem MOL file


 20 19  0  0  0  0  0  0  0  0999 V2000     
   20.3378   18.5220   20.5535 N   0  3  0  0  0  0  0  0  0  0  0  0
   20.0694   19.2523   19.8864 H   0  0  0  0  0  0  0  0  0  0  0  0
   21.1448   18.8711   21.0794 H   0  0  0  0  0  0  0  0  0  0  0  0
   20.6559   17.7174   20.0029 H   0  0  0  0  0  0  0  0  0  0  0  0
   19.1923   18.1555   21.4772 C   0  0  0  0  0  0  0  0  0  0  0  0
   19.5107   17.3310   22.1207 H   0  0  0  0  0  0  0  0  0  0  0  0
   18.3751   17.7966   20.8457 H   0  0  0  0  0  0  0  0  0  0  0  0
   18.6839   19.3278   22.3406 C   0  0  0  0  0  0  0  0  0  0  0  0
   18.6279   20.2405   21.7325 H   0  0  0  0  0  0  0  0  0  0  0  0
   17.6504   19.1017   22.6348 H   0  0  0  0  0  0  0  0  0  0  0  0
   19.4965   19.5965   23.6357 C   0  0  0  0  0  0  0  0  0  0  0  0
   19.4367   18.7253   24.3028 H   0  0  0  0  0  0  0  0  0  0  0  0
   18.9953   20.4128   24.1742 H   0  0  0  0  0  0  0  0  0  0  0  0
   20.9772   20.0015   23.4213 C   0  0  0  0  0  0  0  0  0  0  0  0
   21.0985   20.5214   22.4615 H   0  0  0  0  0  0  0  0  0  0  0  0
   21.2543   20.7353   24.1914 H   0  0  0  0  0  0  0  0  0  0  0  0
   21.9558   18.8082   23.5321 C   0  0  0  0  0  0  0  0  0  0  0  0
   22.9837   19.1296   23.3190 H   0  0  0  0  0  0  0  0  0  0  0  0
   21.9440   18.3925   24.5482 H   0  0  0  0  0  0  0  0  0  0  0  0
   21.7056   17.9950   22.8424 H   0  0  0  0  0  0  0  0  0  0  0  0
  1  2  1  0  0  0  0
  1  3  1  0  0  0  0
  1  4  1  0  0  0  0
  1  5  1  0  0  0  0
  5  6  1  0  0  0  0
  5  7  1  0  0  0  0
  5  8  1  0  0  0  0
  8  9  1  0  0  0  0
  8 10  1  0  0  0  0
  8 11  1  0  0  0  0
 11 12  1  0  0  0  0
 11 13  1  0  0  0  0
 11 14  1  0  0  0  0
 14 15  1  0  0  0  0
 14 16  1  0  0  0  0
 14 17  1  0  0  0  0
 17 18  1  0  0  0  0
 17 19  1  0  0  0  0
 17 20  1  0  0  0  0
M  END
> <VConfSearch Rank>
944

> <Conf_Id>
67

> <Delta U+W>
5.353

> <U+W>
-6.425

> <U>
51.541

> <W>
-57.966

> <W(PB)>
-59.821

> <W(SA)>
1.855

> <Valence>
5.347

> <Coulomb>
45.870

> <VdW>
0.325

> <VdW6>
-6.161

> <VdW12>
6.486

> <Bond>
0.201

> <Angle>
1.485

> <Pdih>
3.662

> <Idih>
0.000

> <Tether>
0.000

$$$$
VeraChem MOL file


 20 19  0  0  0  0  0  0  0  0999 V2000     
   21.2927   19.6412   25.4265 N   0  3  0  0  0  0  0  0  0  0  0  0
   20.4762   19.3144   25.9527 H   0  0  0  0  0  0  0  0  0  0  0  0
   22.1214   19.3784   25.9705 H   0  0  0  0  0  0  0  0  0  0  0  0
   21.2555   20.6654   25.4182 H   0  0  0  0  0  0  0  0  0  0  0  0
   21.3323   19.0641   24.0258 C   0  0  0  0  0  0  0  0  0  0  0  0
   21.4017   17.9763   24.1108 H   0  0  0  0  0  0  0  0  0  0  0  0
   22.2394   19.4287   23.5361 H   0  0  0  0  0  0  0  0  0  0  0  0
   20.1013   19.4401   23.1817 C   0  0  0  0  0  0  0  0  0  0  0  0
   19.1917   19.0861   23.6851 H   0  0  0  0  0  0  0  0  0  0  0  0
   20.0264   20.5336   23.1124 H   0  0  0  0  0  0  0  0  0  0  0  0
   20.1808   18.8330   21.7633 C   0  0  0  0  0  0  0  0  0  0  0  0
   20.2608   17.7394   21.8366 H   0  0  0  0  0  0  0  0  0  0  0  0
   21.0945   19.1851   21.2645 H   0  0  0  0  0  0  0  0  0  0  0  0
   18.9496   19.2039   20.9065 C   0  0  0  0  0  0  0  0  0  0  0  0
   18.0333   18.8516   21.4009 H   0  0  0  0  0  0  0  0  0  0  0  0
   18.8670   20.2971   20.8288 H   0  0  0  0  0  0  0  0  0  0  0  0
   19.0333   18.5951   19.4904 C   0  0  0  0  0  0  0  0  0  0  0  0
   19.0824   17.4993   19.5338 H   0  0  0  0  0  0  0  0  0  0  0  0
   18.1510   18.8693   18.8977 H   0  0  0  0  0  0  0  0  0  0  0  0
   19.9224   18.9562   18.9571 H   0  0  0  0  0  0  0  0  0  0  0  0
  1  2  1  0  0  0  0
  1  3  1  0  0  0  0
  1  4  1  0  0  0  0
  1  5  1  0  0  0  0
  5  6  1  0  0  0  0
  5  7  1  0  0  0  0
  5  8  1  0  0  0  0
  8  9  1  0  0  0  0
  8 10  1  0  0  0  0
  8 11  1  0  0  0  0
 11 12  1  0  0  0  0
 11 13  1  0  0  0  0
 11 14  1  0  0  0  0
 14 15  1  0  0  0  0
 14 16  1  0  0  0  0
 14 17  1  0  0  0  0
 17 18  1  0  0  0  0
 17 19  1  0  0  0  0
 17 20  1  0  0  0  0
M  END
> <VConfSearch Rank>
945

> <Conf_Id>
72

> <Delta U+W>
0.000

> <U+W>
-11.778

> <U>
45.772

> <W>
-57.550

> <W(PB)>
-59.511

> <W(SA)>
1.961

> <Valence>
1.299

> <Coulomb>
44.177

> <VdW>
0.297

> <VdW6>
-3.490

> <VdW12>
3.786

> <Bond>
0.096

> <Angle>
0.381

> <Pdih>
0.822

> <Idih>
0.000

> <Tether>
0.000

$$$$
VeraChem MOL file


 20 19  0  0  0  0  0  0  0  0999 V2000     
   19.7828   20.4072   19.7588 N   0  3  0  0  0  0  0  0  0  0  0  0
   20.7471   20.1645   19.5104 H   0  0  0  0  0  0  0  0  0  0  0  0
   19.1770   19.6861   19.3545 H   0  0  0  0  0  0  0  0  0  0  0  0
   19.5634   21.2847   19.2758 H   0  0  0  0  0  0  0  0  0  0  0  0
   19.5971   20.5280   21.2580 C   0  0  0  0  0  0  0  0  0  0  0  0
   18.5598   20.8172   21.4471 H   0  0  0  0  0  0  0  0  0  0  0  0
   20.2478   21.3308   21.6151 H   0  0  0  0  0  0  0  0  0  0  0  0
   19.9180   19.2264   22.0144 C   0  0  0  0  0  0  0  0  0  0  0  0
   19.2734   18.4194   21.6415 H   0  0  0  0  0  0  0  0  0  0  0  0
   20.9550   18.9364   21.8033 H   0  0  0  0  0  0  0  0  0  0  0  0
   19.7128   19.3947   23.5385 C   0  0  0  0  0  0  0  0  0  0  0  0
   18.6926   19.7586   23.7240 H   0  0  0  0  0  0  0  0  0  0  0  0
   20.3911   20.1706   23.9198 H   0  0  0  0  0  0  0  0  0  0  0  0
   19.9217   18.0858   24.3383 C   0  0  0  0  0  0  0  0  0  0  0  0
   19.6558   18.2683   25.3890 H   0  0  0  0  0  0  0  0  0  0  0  0
   19.2284   17.3139   23.9761 H   0  0  0  0  0  0  0  0  0  0  0  0
   21.3713   17.5525   24.2771 C   0  0  0  0  0  0  0  0  0  0  0  0
   22.0876   18.3158   24.6078 H   0  0  0  0  0  0  0  0  0  0  0  0
   21.4870   16.6786   24.9312 H   0  0  0  0  0  0  0  0  0  0  0  0
   21.6444   17.2414   23.2612 H   0  0  0  0  0  0  0  0  0  0  0  0
  1  2  1  0  0  0  0
  1  3  1  0  0  0  0
  1  4  1  0  0  0  0
  1  5  1  0  0  0  0
  5  6  1  0  0  0  0
  5  7  1  0  0  0  0
  5  8  1  0  0  0  0
  8  9  1  0  0  0  0
  8 10  1  0  0  0  0
  8 11  1  0  0  0  0
 11 12  1  0  0  0  0
 11 13  1  0  0  0  0
 11 14  1  0  0  0  0
 14 15  1  0  0  0  0
 14 16  1  0  0  0  0
 14 17  1  0  0  0  0
 17 18  1  0  0  0  0
 17 19  1  0  0  0  0
 17 20  1  0  0  0  0
M  END
> <VConfSearch Rank>
946

> <Conf_Id>
42

> <Delta U+W>
0.508

> <U+W>
-11.270

> <U>
46.486

> <W>
-57.756

> <W(PB)>
-59.705

> <W(SA)>
1.949

> <Valence>
1.806

> <Coulomb>
44.248

> <VdW>
0.433

> <VdW6>
-4.089

> <VdW12>
4.522

> <Bond>
0.131

> <Angle>
0.628

> <Pdih>
1.047

> <Idih>
0.000

> <Tether>
0.000

$$$$
VeraChem MOL file


 20 19  0  0  0  0  0  0  0  0999 V2000     
   21.3004   16.2785   22.4633 N   0  3  0  0  0  0  0  0  0  0  0  0
   22.1113   16.4692   21.8662 H   0  0  0  0  0  0  0  0  0  0  0  0
   21.6125   16.3743   23.4348 H   0  0  0  0  0  0  0  0  0  0  0  0
   21.0556   15.2922   22.3258 H   0  0  0  0  0  0  0  0  0  0  0  0
   20.1366   17.1967   22.1486 C   0  0  0  0  0  0  0  0  0  0  0  0
   19.3021   16.9187   22.7981 H   0  0  0  0  0  0  0  0  0  0  0  0
   19.8382   17.0199   21.1117 H   0  0  0  0  0  0  0  0  0  0  0  0
   20.4709   18.6864   22.3444 C   0  0  0  0  0  0  0  0  0  0  0  0
   20.7859   18.8487   23.3830 H   0  0  0  0  0  0  0  0  0  0  0  0
   21.3195   18.9573   21.7023 H   0  0  0  0  0  0  0  0  0  0  0  0
   19.2571   19.5853   22.0103 C   0  0  0  0  0  0  0  0  0  0  0  0
   18.4225   19.3458   22.6839 H   0  0  0  0  0  0  0  0  0  0  0  0
   18.9093   19.3535   20.9939 H   0  0  0  0  0  0  0  0  0  0  0  0
   19.5689   21.0996   22.0907 C   0  0  0  0  0  0  0  0  0  0  0  0
   20.3874   21.3479   21.4006 H   0  0  0  0  0  0  0  0  0  0  0  0
   18.6909   21.6595   21.7392 H   0  0  0  0  0  0  0  0  0  0  0  0
   19.9273   21.5788   23.5159 C   0  0  0  0  0  0  0  0  0  0  0  0
   20.8682   21.1364   23.8659 H   0  0  0  0  0  0  0  0  0  0  0  0
   20.0491   22.6695   23.5351 H   0  0  0  0  0  0  0  0  0  0  0  0
   19.1367   21.3173   24.2313 H   0  0  0  0  0  0  0  0  0  0  0  0
  1  2  1  0  0  0  0
  1  3  1  0  0  0  0
  1  4  1  0  0  0  0
  1  5  1  0  0  0  0
  5  6  1  0  0  0  0
  5  7  1  0  0  0  0
  5  8  1  0  0  0  0
  8  9  1  0  0  0  0
  8 10  1  0  0  0  0
  8 11  1  0  0  0  0
 11 12  1  0  0  0  0
 11 13  1  0  0  0  0
 11 14  1  0  0  0  0
 14 15  1  0  0  0  0
 14 16  1  0  0  0  0
 14 17  1  0  0  0  0
 17 18  1  0  0  0  0
 17 19  1  0  0  0  0
 17 20  1  0  0  0  0
M  END
> <VConfSearch Rank>
947

> <Conf_Id>
41

> <Delta U+W>
0.515

> <U+W>
-11.263

> <U>
46.486

> <W>
-57.749

> <W(PB)>
-59.685

> <W(SA)>
1.936

> <Valence>
1.806

> <Coulomb>
44.248

> <VdW>
0.433

> <VdW6>
-4.089

> <VdW12>
4.522

> <Bond>
0.131

> <Angle>
0.628

> <Pdih>
1.047

> <Idih>
0.000

> <Tether>
0.000

$$$$
VeraChem MOL file


 20 19  0  0  0  0  0  0  0  0999 V2000     
   17.8240   20.0979   23.6102 N   0  3  0  0  0  0  0  0  0  0  0  0
   17.2999   20.4734   24.4076 H   0  0  0  0  0  0  0  0  0  0  0  0
   18.1578   20.9004   23.0685 H   0  0  0  0  0  0  0  0  0  0  0  0
   17.1520   19.5943   23.0228 H   0  0  0  0  0  0  0  0  0  0  0  0
   18.9646   19.2039   24.0573 C   0  0  0  0  0  0  0  0  0  0  0  0
   18.5367   18.4001   24.6627 H   0  0  0  0  0  0  0  0  0  0  0  0
   19.6285   19.7932   24.6956 H   0  0  0  0  0  0  0  0  0  0  0  0
   19.7711   18.5917   22.8951 C   0  0  0  0  0  0  0  0  0  0  0  0
   20.4872   17.8771   23.3197 H   0  0  0  0  0  0  0  0  0  0  0  0
   19.0987   18.0150   22.2463 H   0  0  0  0  0  0  0  0  0  0  0  0
   20.5267   19.6588   22.0636 C   0  0  0  0  0  0  0  0  0  0  0  0
   21.2141   20.2165   22.7148 H   0  0  0  0  0  0  0  0  0  0  0  0
   19.8095   20.3920   21.6716 H   0  0  0  0  0  0  0  0  0  0  0  0
   21.3133   19.0662   20.8689 C   0  0  0  0  0  0  0  0  0  0  0  0
   20.6276   18.5188   20.2071 H   0  0  0  0  0  0  0  0  0  0  0  0
   21.7213   19.8933   20.2711 H   0  0  0  0  0  0  0  0  0  0  0  0
   22.4758   18.1403   21.2943 C   0  0  0  0  0  0  0  0  0  0  0  0
   22.1093   17.2321   21.7882 H   0  0  0  0  0  0  0  0  0  0  0  0
   23.0567   17.8261   20.4175 H   0  0  0  0  0  0  0  0  0  0  0  0
   23.1594   18.6547   21.9821 H   0  0  0  0  0  0  0  0  0  0  0  0
  1  2  1  0  0  0  0
  1  3  1  0  0  0  0
  1  4  1  0  0  0  0
  1  5  1  0  0  0  0
  5  6  1  0  0  0  0
  5  7  1  0  0  0  0
  5  8  1  0  0  0  0
  8  9  1  0  0  0  0
  8 10  1  0  0  0  0
  8 11  1  0  0  0  0
 11 12  1  0  0  0  0
 11 13  1  0  0  0  0
 11 14  1  0  0  0  0
 14 15  1  0  0  0  0
 14 16  1  0  0  0  0
 14 17  1  0  0  0  0
 17 18  1  0  0  0  0
 17 19  1  0  0  0  0
 17 20  1  0  0  0  0
M  END
> <VConfSearch Rank>
948

> <Conf_Id>
33

> <Delta U+W>
0.703

> <U+W>
-11.075

> <U>
47.080

> <W>
-58.154

> <W(PB)>
-60.053

> <W(SA)>
1.899

> <Valence>
1.943

> <Coulomb>
44.572

> <VdW>
0.565

> <VdW6>
-4.575

> <VdW12>
5.139

> <Bond>
0.158

> <Angle>
0.700

> <Pdih>
1.085

> <Idih>
0.000

> <Tether>
0.000

$$$$
VeraChem MOL file


 20 19  0  0  0  0  0  0  0  0999 V2000     
   21.0565   21.7380   22.4774 N   0  3  0  0  0  0  0  0  0  0  0  0
   21.3875   22.5809   21.9962 H   0  0  0  0  0  0  0  0  0  0  0  0
   20.5882   22.0489   23.3342 H   0  0  0  0  0  0  0  0  0  0  0  0
   21.8877   21.2109   22.7608 H   0  0  0  0  0  0  0  0  0  0  0  0
   20.1365   20.9129   21.5982 C   0  0  0  0  0  0  0  0  0  0  0  0
   20.6877   20.6349   20.6957 H   0  0  0  0  0  0  0  0  0  0  0  0
   19.3008   21.5529   21.3021 H   0  0  0  0  0  0  0  0  0  0  0  0
   19.5893   19.6450   22.2829 C   0  0  0  0  0  0  0  0  0  0  0  0
   19.0513   19.9260   23.1979 H   0  0  0  0  0  0  0  0  0  0  0  0
   18.8506   19.1899   21.6115 H   0  0  0  0  0  0  0  0  0  0  0  0
   20.7001   18.6165   22.6136 C   0  0  0  0  0  0  0  0  0  0  0  0
   21.4554   19.0882   23.2560 H   0  0  0  0  0  0  0  0  0  0  0  0
   21.2191   18.3231   21.6905 H   0  0  0  0  0  0  0  0  0  0  0  0
   20.1742   17.3517   23.3350 C   0  0  0  0  0  0  0  0  0  0  0  0
   21.0329   16.7335   23.6325 H   0  0  0  0  0  0  0  0  0  0  0  0
   19.6660   17.6389   24.2662 H   0  0  0  0  0  0  0  0  0  0  0  0
   19.2238   16.4963   22.4662 C   0  0  0  0  0  0  0  0  0  0  0  0
   19.6975   16.2222   21.5146 H   0  0  0  0  0  0  0  0  0  0  0  0
   18.9584   15.5676   22.9879 H   0  0  0  0  0  0  0  0  0  0  0  0
   18.2899   17.0275   22.2455 H   0  0  0  0  0  0  0  0  0  0  0  0
  1  2  1  0  0  0  0
  1  3  1  0  0  0  0
  1  4  1  0  0  0  0
  1  5  1  0  0  0  0
  5  6  1  0  0  0  0
  5  7  1  0  0  0  0
  5  8  1  0  0  0  0
  8  9  1  0  0  0  0
  8 10  1  0  0  0  0
  8 11  1  0  0  0  0
 11 12  1  0  0  0  0
 11 13  1  0  0  0  0
 11 14  1  0  0  0  0
 14 15  1  0  0  0  0
 14 16  1  0  0  0  0
 14 17  1  0  0  0  0
 17 18  1  0  0  0  0
 17 19  1  0  0  0  0
 17 20  1  0  0  0  0
M  END
> <VConfSearch Rank>
949

> <Conf_Id>
24

> <Delta U+W>
0.847

> <U+W>
-10.931

> <U>
47.080

> <W>
-58.011

> <W(PB)>
-59.914

> <W(SA)>
1.903

> <Valence>
1.943

> <Coulomb>
44.572

> <VdW>
0.565

> <VdW6>
-4.575

> <VdW12>
5.140

> <Bond>
0.158

> <Angle>
0.700

> <Pdih>
1.085

> <Idih>
0.000

> <Tether>
0.000

$$$$
VeraChem MOL file


 20 19  0  0  0  0  0  0  0  0999 V2000     
   17.9034   19.7370   20.9786 N   0  3  0  0  0  0  0  0  0  0  0  0
   17.3278   19.0601   20.4667 H   0  0  0  0  0  0  0  0  0  0  0  0
   17.3716   20.0102   21.8109 H   0  0  0  0  0  0  0  0  0  0  0  0
   17.9821   20.5687   20.3850 H   0  0  0  0  0  0  0  0  0  0  0  0
   19.2608   19.1659   21.3358 C   0  0  0  0  0  0  0  0  0  0  0  0
   19.7580   18.8704   20.4079 H   0  0  0  0  0  0  0  0  0  0  0  0
   19.0995   18.2694   21.9402 H   0  0  0  0  0  0  0  0  0  0  0  0
   20.1511   20.1584   22.1070 C   0  0  0  0  0  0  0  0  0  0  0  0
   20.2725   21.0714   21.5090 H   0  0  0  0  0  0  0  0  0  0  0  0
   19.6489   20.4628   23.0342 H   0  0  0  0  0  0  0  0  0  0  0  0
   21.5527   19.5819   22.4282 C   0  0  0  0  0  0  0  0  0  0  0  0
   22.1361   20.3424   22.9654 H   0  0  0  0  0  0  0  0  0  0  0  0
   22.0882   19.4007   21.4859 H   0  0  0  0  0  0  0  0  0  0  0  0
   21.5434   18.2716   23.2565 C   0  0  0  0  0  0  0  0  0  0  0  0
   21.0554   17.4673   22.6892 H   0  0  0  0  0  0  0  0  0  0  0  0
   22.5820   17.9456   23.4078 H   0  0  0  0  0  0  0  0  0  0  0  0
   20.8628   18.4214   24.6361 C   0  0  0  0  0  0  0  0  0  0  0  0
   20.9650   17.4962   25.2177 H   0  0  0  0  0  0  0  0  0  0  0  0
   21.3196   19.2342   25.2156 H   0  0  0  0  0  0  0  0  0  0  0  0
   19.7905   18.6308   24.5356 H   0  0  0  0  0  0  0  0  0  0  0  0
  1  2  1  0  0  0  0
  1  3  1  0  0  0  0
  1  4  1  0  0  0  0
  1  5  1  0  0  0  0
  5  6  1  0  0  0  0
  5  7  1  0  0  0  0
  5  8  1  0  0  0  0
  8  9  1  0  0  0  0
  8 10  1  0  0  0  0
  8 11  1  0  0  0  0
 11 12  1  0  0  0  0
 11 13  1  0  0  0  0
 11 14  1  0  0  0  0
 14 15  1  0  0  0  0
 14 16  1  0  0  0  0
 14 17  1  0  0  0  0
 17 18  1  0  0  0  0
 17 19  1  0  0  0  0
 17 20  1  0  0  0  0
M  END
> <VConfSearch Rank>
950

> <Conf_Id>
64

> <Delta U+W>
0.707

> <U+W>
-11.070

> <U>
47.077

> <W>
-58.148

> <W(PB)>
-60.054

> <W(SA)>
1.906

> <Valence>
2.039

> <Coulomb>
44.655

> <VdW>
0.383

> <VdW6>
-4.912

> <VdW12>
5.295

> <Bond>
0.159

> <Angle>
0.856

> <Pdih>
1.024

> <Idih>
0.000

> <Tether>
0.000

$$$$
VeraChem MOL file


 20 19  0  0  0  0  0  0  0  0999 V2000     
   21.8414   18.1733   24.5049 N   0  3  0  0  0  0  0  0  0  0  0  0
   22.0039   18.8566   25.2512 H   0  0  0  0  0  0  0  0  0  0  0  0
   21.1217   17.5257   24.8409 H   0  0  0  0  0  0  0  0  0  0  0  0
   22.7061   17.6312   24.4051 H   0  0  0  0  0  0  0  0  0  0  0  0
   21.4413   18.8399   23.2042 C   0  0  0  0  0  0  0  0  0  0  0  0
   21.3153   18.0578   22.4509 H   0  0  0  0  0  0  0  0  0  0  0  0
   22.2626   19.4901   22.8910 H   0  0  0  0  0  0  0  0  0  0  0  0
   20.1444   19.6628   23.3198 C   0  0  0  0  0  0  0  0  0  0  0  0
   19.3213   19.0128   23.6431 H   0  0  0  0  0  0  0  0  0  0  0  0
   20.2674   20.4180   24.1074 H   0  0  0  0  0  0  0  0  0  0  0  0
   19.7677   20.3770   21.9977 C   0  0  0  0  0  0  0  0  0  0  0  0
   20.5457   21.1146   21.7567 H   0  0  0  0  0  0  0  0  0  0  0  0
   18.8446   20.9520   22.1539 H   0  0  0  0  0  0  0  0  0  0  0  0
   19.5788   19.4358   20.7804 C   0  0  0  0  0  0  0  0  0  0  0  0
   19.3343   20.0467   19.9001 H   0  0  0  0  0  0  0  0  0  0  0  0
   20.5239   18.9293   20.5419 H   0  0  0  0  0  0  0  0  0  0  0  0
   18.4629   18.3857   20.9829 C   0  0  0  0  0  0  0  0  0  0  0  0
   17.5109   18.8662   21.2431 H   0  0  0  0  0  0  0  0  0  0  0  0
   18.3067   17.8083   20.0625 H   0  0  0  0  0  0  0  0  0  0  0  0
   18.7184   17.6748   21.7785 H   0  0  0  0  0  0  0  0  0  0  0  0
  1  2  1  0  0  0  0
  1  3  1  0  0  0  0
  1  4  1  0  0  0  0
  1  5  1  0  0  0  0
  5  6  1  0  0  0  0
  5  7  1  0  0  0  0
  5  8  1  0  0  0  0
  8  9  1  0  0  0  0
  8 10  1  0  0  0  0
  8 11  1  0  0  0  0
 11 12  1  0  0  0  0
 11 13  1  0  0  0  0
 11 14  1  0  0  0  0
 14 15  1  0  0  0  0
 14 16  1  0  0  0  0
 14 17  1  0  0  0  0
 17 18  1  0  0  0  0
 17 19  1  0  0  0  0
 17 20  1  0  0  0  0
M  END
> <VConfSearch Rank>
951

> <Conf_Id>
22

> <Delta U+W>
0.731

> <U+W>
-11.047

> <U>
47.078

> <W>
-58.125

> <W(PB)>
-60.031

> <W(SA)>
1.906

> <Valence>
2.039

> <Coulomb>
44.655

> <VdW>
0.383

> <VdW6>
-4.913

> <VdW12>
5.296

> <Bond>
0.159

> <Angle>
0.856

> <Pdih>
1.024

> <Idih>
0.000

> <Tether>
0.000

$$$$
VeraChem MOL file


 20 19  0  0  0  0  0  0  0  0999 V2000     
   19.4288   16.9278   21.1474 N   0  3  0  0  0  0  0  0  0  0  0  0
   19.0782   17.3103   20.2636 H   0  0  0  0  0  0  0  0  0  0  0  0
   20.2233   16.3220   20.9191 H   0  0  0  0  0  0  0  0  0  0  0  0
   18.6915   16.3219   21.5226 H   0  0  0  0  0  0  0  0  0  0  0  0
   19.8121   18.0205   22.1250 C   0  0  0  0  0  0  0  0  0  0  0  0
   20.1492   17.5442   23.0497 H   0  0  0  0  0  0  0  0  0  0  0  0
   18.9132   18.6022   22.3412 H   0  0  0  0  0  0  0  0  0  0  0  0
   20.9140   18.9516   21.5888 C   0  0  0  0  0  0  0  0  0  0  0  0
   21.7661   18.3397   21.2640 H   0  0  0  0  0  0  0  0  0  0  0  0
   20.5484   19.4734   20.6944 H   0  0  0  0  0  0  0  0  0  0  0  0
   21.4205   19.9872   22.6246 C   0  0  0  0  0  0  0  0  0  0  0  0
   22.2593   20.5290   22.1660 H   0  0  0  0  0  0  0  0  0  0  0  0
   21.8424   19.4730   23.4992 H   0  0  0  0  0  0  0  0  0  0  0  0
   20.3652   21.0307   23.0745 C   0  0  0  0  0  0  0  0  0  0  0  0
   20.8916   21.9527   23.3590 H   0  0  0  0  0  0  0  0  0  0  0  0
   19.7146   21.3030   22.2317 H   0  0  0  0  0  0  0  0  0  0  0  0
   19.5143   20.5800   24.2852 C   0  0  0  0  0  0  0  0  0  0  0  0
   18.8859   19.7141   24.0526 H   0  0  0  0  0  0  0  0  0  0  0  0
   20.1523   20.3184   25.1393 H   0  0  0  0  0  0  0  0  0  0  0  0
   18.8475   21.3909   24.6058 H   0  0  0  0  0  0  0  0  0  0  0  0
  1  2  1  0  0  0  0
  1  3  1  0  0  0  0
  1  4  1  0  0  0  0
  1  5  1  0  0  0  0
  5  6  1  0  0  0  0
  5  7  1  0  0  0  0
  5  8  1  0  0  0  0
  8  9  1  0  0  0  0
  8 10  1  0  0  0  0
  8 11  1  0  0  0  0
 11 12  1  0  0  0  0
 11 13  1  0  0  0  0
 11 14  1  0  0  0  0
 14 15  1  0  0  0  0
 14 16  1  0  0  0  0
 14 17  1  0  0  0  0
 17 18  1  0  0  0  0
 17 19  1  0  0  0  0
 17 20  1  0  0  0  0
M  END
> <VConfSearch Rank>
952

> <Conf_Id>
61

> <Delta U+W>
2.669

> <U+W>
-9.108

> <U>
48.916

> <W>
-58.025

> <W(PB)>
-59.935

> <W(SA)>
1.911

> <Valence>
3.785

> <Coulomb>
44.716

> <VdW>
0.415

> <VdW6>
-4.836

> <VdW12>
5.251

> <Bond>
0.175

> <Angle>
1.195

> <Pdih>
2.415

> <Idih>
0.000

> <Tether>
0.000

$$$$
VeraChem MOL file


 20 19  0  0  0  0  0  0  0  0999 V2000     
   18.3588   17.6587   22.8496 N   0  3  0  0  0  0  0  0  0  0  0  0
   18.0175   16.6933   22.7942 H   0  0  0  0  0  0  0  0  0  0  0  0
   17.5700   18.2347   23.1600 H   0  0  0  0  0  0  0  0  0  0  0  0
   18.5898   17.9510   21.8966 H   0  0  0  0  0  0  0  0  0  0  0  0
   19.5471   17.7815   23.7843 C   0  0  0  0  0  0  0  0  0  0  0  0
   20.3336   17.1051   23.4391 H   0  0  0  0  0  0  0  0  0  0  0  0
   19.2146   17.4389   24.7679 H   0  0  0  0  0  0  0  0  0  0  0  0
   20.1078   19.2132   23.9160 C   0  0  0  0  0  0  0  0  0  0  0  0
   19.2837   19.9346   23.9947 H   0  0  0  0  0  0  0  0  0  0  0  0
   20.6511   19.2723   24.8684 H   0  0  0  0  0  0  0  0  0  0  0  0
   21.0845   19.6296   22.7861 C   0  0  0  0  0  0  0  0  0  0  0  0
   21.9324   18.9312   22.7593 H   0  0  0  0  0  0  0  0  0  0  0  0
   21.5058   20.6113   23.0434 H   0  0  0  0  0  0  0  0  0  0  0  0
   20.4419   19.7147   21.3818 C   0  0  0  0  0  0  0  0  0  0  0  0
   20.1490   18.7137   21.0410 H   0  0  0  0  0  0  0  0  0  0  0  0
   19.5298   20.3264   21.4245 H   0  0  0  0  0  0  0  0  0  0  0  0
   21.4144   20.3208   20.3475 C   0  0  0  0  0  0  0  0  0  0  0  0
   20.9471   20.3652   19.3552 H   0  0  0  0  0  0  0  0  0  0  0  0
   21.7047   21.3417   20.6280 H   0  0  0  0  0  0  0  0  0  0  0  0
   22.3275   19.7170   20.2629 H   0  0  0  0  0  0  0  0  0  0  0  0
  1  2  1  0  0  0  0
  1  3  1  0  0  0  0
  1  4  1  0  0  0  0
  1  5  1  0  0  0  0
  5  6  1  0  0  0  0
  5  7  1  0  0  0  0
  5  8  1  0  0  0  0
  8  9  1  0  0  0  0
  8 10  1  0  0  0  0
  8 11  1  0  0  0  0
 11 12  1  0  0  0  0
 11 13  1  0  0  0  0
 11 14  1  0  0  0  0
 14 15  1  0  0  0  0
 14 16  1  0  0  0  0
 14 17  1  0  0  0  0
 17 18  1  0  0  0  0
 17 19  1  0  0  0  0
 17 20  1  0  0  0  0
M  END
> <VConfSearch Rank>
953

> <Conf_Id>
69

> <Delta U+W>
2.811

> <U+W>
-8.967

> <U>
49.216

> <W>
-58.183

> <W(PB)>
-60.064

> <W(SA)>
1.881

> <Valence>
2.929

> <Coulomb>
46.006

> <VdW>
0.281

> <VdW6>
-4.909

> <VdW12>
5.190

> <Bond>
0.156

> <Angle>
0.974

> <Pdih>
1.799

> <Idih>
0.000

> <Tether>
0.000

$$$$
VeraChem MOL file


 20 19  0  0  0  0  0  0  0  0999 V2000     
   18.9144   18.4184   20.5955 N   0  3  0  0  0  0  0  0  0  0  0  0
   18.7752   18.0049   21.5210 H   0  0  0  0  0  0  0  0  0  0  0  0
   18.1324   19.0598   20.4300 H   0  0  0  0  0  0  0  0  0  0  0  0
   18.8264   17.6603   19.9105 H   0  0  0  0  0  0  0  0  0  0  0  0
   20.2530   19.1229   20.4845 C   0  0  0  0  0  0  0  0  0  0  0  0
   20.3202   19.5196   19.4678 H   0  0  0  0  0  0  0  0  0  0  0  0
   21.0480   18.3832   20.6116 H   0  0  0  0  0  0  0  0  0  0  0  0
   20.4484   20.2796   21.4872 C   0  0  0  0  0  0  0  0  0  0  0  0
   21.2132   20.9518   21.0760 H   0  0  0  0  0  0  0  0  0  0  0  0
   19.5295   20.8768   21.5568 H   0  0  0  0  0  0  0  0  0  0  0  0
   20.9142   19.8379   22.8984 C   0  0  0  0  0  0  0  0  0  0  0  0
   21.1308   20.7415   23.4851 H   0  0  0  0  0  0  0  0  0  0  0  0
   21.8645   19.2924   22.8162 H   0  0  0  0  0  0  0  0  0  0  0  0
   19.8894   18.9749   23.6713 C   0  0  0  0  0  0  0  0  0  0  0  0
   18.9064   19.4664   23.6647 H   0  0  0  0  0  0  0  0  0  0  0  0
   19.7715   18.0009   23.1800 H   0  0  0  0  0  0  0  0  0  0  0  0
   20.3316   18.7385   25.1312 C   0  0  0  0  0  0  0  0  0  0  0  0
   20.4243   19.6875   25.6753 H   0  0  0  0  0  0  0  0  0  0  0  0
   19.5992   18.1170   25.6626 H   0  0  0  0  0  0  0  0  0  0  0  0
   21.3012   18.2252   25.1719 H   0  0  0  0  0  0  0  0  0  0  0  0
  1  2  1  0  0  0  0
  1  3  1  0  0  0  0
  1  4  1  0  0  0  0
  1  5  1  0  0  0  0
  5  6  1  0  0  0  0
  5  7  1  0  0  0  0
  5  8  1  0  0  0  0
  8  9  1  0  0  0  0
  8 10  1  0  0  0  0
  8 11  1  0  0  0  0
 11 12  1  0  0  0  0
 11 13  1  0  0  0  0
 11 14  1  0  0  0  0
 14 15  1  0  0  0  0
 14 16  1  0  0  0  0
 14 17  1  0  0  0  0
 17 18  1  0  0  0  0
 17 19  1  0  0  0  0
 17 20  1  0  0  0  0
M  END
> <VConfSearch Rank>
954

> <Conf_Id>
26

> <Delta U+W>
2.809

> <U+W>
-8.969

> <U>
49.216

> <W>
-58.185

> <W(PB)>
-60.088

> <W(SA)>
1.903

> <Valence>
2.929

> <Coulomb>
46.006

> <VdW>
0.281

> <VdW6>
-4.909

> <VdW12>
5.190

> <Bond>
0.156

> <Angle>
0.974

> <Pdih>
1.799

> <Idih>
0.000

> <Tether>
0.000

$$$$
VeraChem MOL file


 20 19  0  0  0  0  0  0  0  0999 V2000     
   20.8107   16.8602   22.6622 N   0  3  0  0  0  0  0  0  0  0  0  0
   21.1042   17.3353   23.5207 H   0  0  0  0  0  0  0  0  0  0  0  0
   20.0898   16.1805   22.9236 H   0  0  0  0  0  0  0  0  0  0  0  0
   21.6172   16.3248   22.3241 H   0  0  0  0  0  0  0  0  0  0  0  0
   20.3091   17.8418   21.6211 C   0  0  0  0  0  0  0  0  0  0  0  0
   20.0443   17.2719   20.7263 H   0  0  0  0  0  0  0  0  0  0  0  0
   21.1317   18.5141   21.3636 H   0  0  0  0  0  0  0  0  0  0  0  0
   19.0897   18.6654   22.0827 C   0  0  0  0  0  0  0  0  0  0  0  0
   18.7476   19.2896   21.2473 H   0  0  0  0  0  0  0  0  0  0  0  0
   18.2591   17.9829   22.3062 H   0  0  0  0  0  0  0  0  0  0  0  0
   19.3642   19.5582   23.3215 C   0  0  0  0  0  0  0  0  0  0  0  0
   19.5467   18.9198   24.1963 H   0  0  0  0  0  0  0  0  0  0  0  0
   18.4544   20.1283   23.5548 H   0  0  0  0  0  0  0  0  0  0  0  0
   20.5503   20.5436   23.1628 C   0  0  0  0  0  0  0  0  0  0  0  0
   20.6672   21.1054   24.1002 H   0  0  0  0  0  0  0  0  0  0  0  0
   21.4889   19.9901   23.0242 H   0  0  0  0  0  0  0  0  0  0  0  0
   20.3630   21.5464   22.0018 C   0  0  0  0  0  0  0  0  0  0  0  0
   19.4222   22.1020   22.1078 H   0  0  0  0  0  0  0  0  0  0  0  0
   21.1834   22.2756   21.9873 H   0  0  0  0  0  0  0  0  0  0  0  0
   20.3553   21.0394   21.0289 H   0  0  0  0  0  0  0  0  0  0  0  0
  1  2  1  0  0  0  0
  1  3  1  0  0  0  0
  1  4  1  0  0  0  0
  1  5  1  0  0  0  0
  5  6  1  0  0  0  0
  5  7  1  0  0  0  0
  5  8  1  0  0  0  0
  8  9  1  0  0  0  0
  8 10  1  0  0  0  0
  8 11  1  0  0  0  0
 11 12  1  0  0  0  0
 11 13  1  0  0  0  0
 11 14  1  0  0  0  0
 14 15  1  0  0  0  0
 14 16  1  0  0  0  0
 14 17  1  0  0  0  0
 17 18  1  0  0  0  0
 17 19  1  0  0  0  0
 17 20  1  0  0  0  0
M  END
> <VConfSearch Rank>
955

> <Conf_Id>
2

> <Delta U+W>
0.994

> <U+W>
-10.784

> <U>
47.562

> <W>
-58.346

> <W(PB)>
-60.221

> <W(SA)>
1.875

> <Valence>
2.149

> <Coulomb>
45.034

> <VdW>
0.378

> <VdW6>
-5.599

> <VdW12>
5.977

> <Bond>
0.185

> <Angle>
0.935

> <Pdih>
1.028

> <Idih>
0.000

> <Tether>
0.000

$$$$
VeraChem MOL file


 20 19  0  0  0  0  0  0  0  0999 V2000     
   20.5244   21.4586   22.1718 N   0  3  0  0  0  0  0  0  0  0  0  0
   21.1914   21.7484   21.4498 H   0  0  0  0  0  0  0  0  0  0  0  0
   19.6478   21.2236   21.6971 H   0  0  0  0  0  0  0  0  0  0  0  0
   20.3394   22.2815   22.7548 H   0  0  0  0  0  0  0  0  0  0  0  0
   21.0492   20.2946   22.9895 C   0  0  0  0  0  0  0  0  0  0  0  0
   20.3089   20.0580   23.7582 H   0  0  0  0  0  0  0  0  0  0  0  0
   21.9637   20.6245   23.4897 H   0  0  0  0  0  0  0  0  0  0  0  0
   21.3499   19.0348   22.1523 C   0  0  0  0  0  0  0  0  0  0  0  0
   22.1188   19.2746   21.4060 H   0  0  0  0  0  0  0  0  0  0  0  0
   21.7945   18.2735   22.8059 H   0  0  0  0  0  0  0  0  0  0  0  0
   20.1081   18.4438   21.4341 C   0  0  0  0  0  0  0  0  0  0  0  0
   20.4109   17.5363   20.8938 H   0  0  0  0  0  0  0  0  0  0  0  0
   19.7649   19.1472   20.6636 H   0  0  0  0  0  0  0  0  0  0  0  0
   18.9186   18.1019   22.3675 C   0  0  0  0  0  0  0  0  0  0  0  0
   18.5364   19.0136   22.8462 H   0  0  0  0  0  0  0  0  0  0  0  0
   18.0926   17.7140   21.7550 H   0  0  0  0  0  0  0  0  0  0  0  0
   19.2696   17.0557   23.4497 C   0  0  0  0  0  0  0  0  0  0  0  0
   20.0123   17.4428   24.1582 H   0  0  0  0  0  0  0  0  0  0  0  0
   18.3755   16.7828   24.0250 H   0  0  0  0  0  0  0  0  0  0  0  0
   19.6702   16.1392   22.9975 H   0  0  0  0  0  0  0  0  0  0  0  0
  1  2  1  0  0  0  0
  1  3  1  0  0  0  0
  1  4  1  0  0  0  0
  1  5  1  0  0  0  0
  5  6  1  0  0  0  0
  5  7  1  0  0  0  0
  5  8  1  0  0  0  0
  8  9  1  0  0  0  0
  8 10  1  0  0  0  0
  8 11  1  0  0  0  0
 11 12  1  0  0  0  0
 11 13  1  0  0  0  0
 11 14  1  0  0  0  0
 14 15  1  0  0  0  0
 14 16  1  0  0  0  0
 14 17  1  0  0  0  0
 17 18  1  0  0  0  0
 17 19  1  0  0  0  0
 17 20  1  0  0  0  0
M  END
> <VConfSearch Rank>
956

> <Conf_Id>
1

> <Delta U+W>
1.032

> <U+W>
-10.746

> <U>
47.562

> <W>
-58.308

> <W(PB)>
-60.184

> <W(SA)>
1.877

> <Valence>
2.149

> <Coulomb>
45.035

> <VdW>
0.378

> <VdW6>
-5.599

> <VdW12>
5.978

> <Bond>
0.185

> <Angle>
0.935

> <Pdih>
1.028

> <Idih>
0.000

> <Tether>
0.000

$$$$
VeraChem MOL file


 20 19  0  0  0  0  0  0  0  0999 V2000     
   18.4340   20.5032   21.9554 N   0  3  0  0  0  0  0  0  0  0  0  0
   17.5070   20.0833   21.8346 H   0  0  0  0  0  0  0  0  0  0  0  0
   18.6050   20.5749   22.9625 H   0  0  0  0  0  0  0  0  0  0  0  0
   18.3770   21.4605   21.5926 H   0  0  0  0  0  0  0  0  0  0  0  0
   19.5132   19.6995   21.2562 C   0  0  0  0  0  0  0  0  0  0  0  0
   20.4632   20.2169   21.3987 H   0  0  0  0  0  0  0  0  0  0  0  0
   19.2852   19.7040   20.1868 H   0  0  0  0  0  0  0  0  0  0  0  0
   19.6182   18.2390   21.7447 C   0  0  0  0  0  0  0  0  0  0  0  0
   18.6425   17.7585   21.5935 H   0  0  0  0  0  0  0  0  0  0  0  0
   20.3244   17.6919   21.1062 H   0  0  0  0  0  0  0  0  0  0  0  0
   20.0309   18.0797   23.2328 C   0  0  0  0  0  0  0  0  0  0  0  0
   19.6763   17.0982   23.5770 H   0  0  0  0  0  0  0  0  0  0  0  0
   19.5102   18.8146   23.8601 H   0  0  0  0  0  0  0  0  0  0  0  0
   21.5568   18.1407   23.5013 C   0  0  0  0  0  0  0  0  0  0  0  0
   21.7281   17.9240   24.5651 H   0  0  0  0  0  0  0  0  0  0  0  0
   22.0635   17.3402   22.9443 H   0  0  0  0  0  0  0  0  0  0  0  0
   22.2154   19.4967   23.1649 C   0  0  0  0  0  0  0  0  0  0  0  0
   21.6626   20.3315   23.6148 H   0  0  0  0  0  0  0  0  0  0  0  0
   23.2426   19.5285   23.5508 H   0  0  0  0  0  0  0  0  0  0  0  0
   22.2730   19.6551   22.0815 H   0  0  0  0  0  0  0  0  0  0  0  0
  1  2  1  0  0  0  0
  1  3  1  0  0  0  0
  1  4  1  0  0  0  0
  1  5  1  0  0  0  0
  5  6  1  0  0  0  0
  5  7  1  0  0  0  0
  5  8  1  0  0  0  0
  8  9  1  0  0  0  0
  8 10  1  0  0  0  0
  8 11  1  0  0  0  0
 11 12  1  0  0  0  0
 11 13  1  0  0  0  0
 11 14  1  0  0  0  0
 14 15  1  0  0  0  0
 14 16  1  0  0  0  0
 14 17  1  0  0  0  0
 17 18  1  0  0  0  0
 17 19  1  0  0  0  0
 17 20  1  0  0  0  0
M  END
> <VConfSearch Rank>
957

> <Conf_Id>
80

> <Delta U+W>
2.920

> <U+W>
-8.857

> <U>
49.434

> <W>
-58.292

> <W(PB)>
-60.170

> <W(SA)>
1.879

> <Valence>
3.798

> <Coulomb>
45.253

> <VdW>
0.384

> <VdW6>
-5.595

> <VdW12>
5.979

> <Bond>
0.198

> <Angle>
1.368

> <Pdih>
2.231

> <Idih>
0.000

> <Tether>
0.000

$$$$
VeraChem MOL file


 20 19  0  0  0  0  0  0  0  0999 V2000     
   19.0976   17.5228   21.2919 N   0  3  0  0  0  0  0  0  0  0  0  0
   19.0559   17.5903   20.2702 H   0  0  0  0  0  0  0  0  0  0  0  0
   18.8026   16.5726   21.5400 H   0  0  0  0  0  0  0  0  0  0  0  0
   18.3912   18.1625   21.6667 H   0  0  0  0  0  0  0  0  0  0  0  0
   20.4826   17.8390   21.8225 C   0  0  0  0  0  0  0  0  0  0  0  0
   21.1690   17.0924   21.4139 H   0  0  0  0  0  0  0  0  0  0  0  0
   20.4628   17.7183   22.9068 H   0  0  0  0  0  0  0  0  0  0  0  0
   20.9871   19.2488   21.4478 C   0  0  0  0  0  0  0  0  0  0  0  0
   22.0369   19.3522   21.7524 H   0  0  0  0  0  0  0  0  0  0  0  0
   20.9826   19.3321   20.3529 H   0  0  0  0  0  0  0  0  0  0  0  0
   20.1549   20.4163   22.0434 C   0  0  0  0  0  0  0  0  0  0  0  0
   19.0809   20.2002   21.9761 H   0  0  0  0  0  0  0  0  0  0  0  0
   20.3152   21.3005   21.4109 H   0  0  0  0  0  0  0  0  0  0  0  0
   20.5255   20.8129   23.4958 C   0  0  0  0  0  0  0  0  0  0  0  0
   21.5796   21.1208   23.5384 H   0  0  0  0  0  0  0  0  0  0  0  0
   19.9396   21.7014   23.7702 H   0  0  0  0  0  0  0  0  0  0  0  0
   20.2690   19.7121   24.5485 C   0  0  0  0  0  0  0  0  0  0  0  0
   20.9919   18.8932   24.4547 H   0  0  0  0  0  0  0  0  0  0  0  0
   20.3741   20.1210   25.5618 H   0  0  0  0  0  0  0  0  0  0  0  0
   19.2555   19.3006   24.4569 H   0  0  0  0  0  0  0  0  0  0  0  0
  1  2  1  0  0  0  0
  1  3  1  0  0  0  0
  1  4  1  0  0  0  0
  1  5  1  0  0  0  0
  5  6  1  0  0  0  0
  5  7  1  0  0  0  0
  5  8  1  0  0  0  0
  8  9  1  0  0  0  0
  8 10  1  0  0  0  0
  8 11  1  0  0  0  0
 11 12  1  0  0  0  0
 11 13  1  0  0  0  0
 11 14  1  0  0  0  0
 14 15  1  0  0  0  0
 14 16  1  0  0  0  0
 14 17  1  0  0  0  0
 17 18  1  0  0  0  0
 17 19  1  0  0  0  0
 17 20  1  0  0  0  0
M  END
> <VConfSearch Rank>
958

> <Conf_Id>
65

> <Delta U+W>
2.949

> <U+W>
-8.829

> <U>
49.435

> <W>
-58.263

> <W(PB)>
-60.125

> <W(SA)>
1.862

> <Valence>
3.797

> <Coulomb>
45.253

> <VdW>
0.384

> <VdW6>
-5.596

> <VdW12>
5.980

> <Bond>
0.198

> <Angle>
1.369

> <Pdih>
2.230

> <Idih>
0.000

> <Tether>
0.000

$$$$
VeraChem MOL file


 20 19  0  0  0  0  0  0  0  0999 V2000     
   18.5006   19.7807   21.4574 N   0  3  0  0  0  0  0  0  0  0  0  0
   18.2697   20.1404   20.5253 H   0  0  0  0  0  0  0  0  0  0  0  0
   18.9281   18.8581   21.3320 H   0  0  0  0  0  0  0  0  0  0  0  0
   17.6134   19.6412   21.9512 H   0  0  0  0  0  0  0  0  0  0  0  0
   19.4224   20.7194   22.2115 C   0  0  0  0  0  0  0  0  0  0  0  0
   18.8982   21.6743   22.3060 H   0  0  0  0  0  0  0  0  0  0  0  0
   20.3219   20.8841   21.6122 H   0  0  0  0  0  0  0  0  0  0  0  0
   19.8136   20.2187   23.6167 C   0  0  0  0  0  0  0  0  0  0  0  0
   20.1032   21.0936   24.2139 H   0  0  0  0  0  0  0  0  0  0  0  0
   18.9341   19.7934   24.1180 H   0  0  0  0  0  0  0  0  0  0  0  0
   20.9920   19.2088   23.6547 C   0  0  0  0  0  0  0  0  0  0  0  0
   21.1965   18.9828   24.7104 H   0  0  0  0  0  0  0  0  0  0  0  0
   21.9062   19.6857   23.2747 H   0  0  0  0  0  0  0  0  0  0  0  0
   20.7450   17.8685   22.9164 C   0  0  0  0  0  0  0  0  0  0  0  0
   21.2419   17.0638   23.4765 H   0  0  0  0  0  0  0  0  0  0  0  0
   19.6760   17.6166   22.9243 H   0  0  0  0  0  0  0  0  0  0  0  0
   21.3059   17.8566   21.4745 C   0  0  0  0  0  0  0  0  0  0  0  0
   20.9127   18.6770   20.8646 H   0  0  0  0  0  0  0  0  0  0  0  0
   22.3997   17.9502   21.4852 H   0  0  0  0  0  0  0  0  0  0  0  0
   21.0604   16.9121   20.9716 H   0  0  0  0  0  0  0  0  0  0  0  0
  1  2  1  0  0  0  0
  1  3  1  0  0  0  0
  1  4  1  0  0  0  0
  1  5  1  0  0  0  0
  5  6  1  0  0  0  0
  5  7  1  0  0  0  0
  5  8  1  0  0  0  0
  8  9  1  0  0  0  0
  8 10  1  0  0  0  0
  8 11  1  0  0  0  0
 11 12  1  0  0  0  0
 11 13  1  0  0  0  0
 11 14  1  0  0  0  0
 14 15  1  0  0  0  0
 14 16  1  0  0  0  0
 14 17  1  0  0  0  0
 17 18  1  0  0  0  0
 17 19  1  0  0  0  0
 17 20  1  0  0  0  0
M  END
> <VConfSearch Rank>
959

> <Conf_Id>
77

> <Delta U+W>
5.366

> <U+W>
-6.412

> <U>
51.542

> <W>
-57.954

> <W(PB)>
-59.811

> <W(SA)>
1.857

> <Valence>
5.347

> <Coulomb>
45.870

> <VdW>
0.325

> <VdW6>
-6.161

> <VdW12>
6.486

> <Bond>
0.201

> <Angle>
1.484

> <Pdih>
3.662

> <Idih>
0.000

> <Tether>
0.000

$$$$
VeraChem MOL file


 20 19  0  0  0  0  0  0  0  0999 V2000     
   19.2155   17.3396   22.6826 N   0  3  0  0  0  0  0  0  0  0  0  0
   19.4373   16.8159   23.5352 H   0  0  0  0  0  0  0  0  0  0  0  0
   18.8230   18.2407   22.9717 H   0  0  0  0  0  0  0  0  0  0  0  0
   18.4728   16.8228   22.1999 H   0  0  0  0  0  0  0  0  0  0  0  0
   20.4366   17.5251   21.8027 C   0  0  0  0  0  0  0  0  0  0  0  0
   20.1320   18.0292   20.8817 H   0  0  0  0  0  0  0  0  0  0  0  0
   20.7956   16.5263   21.5399 H   0  0  0  0  0  0  0  0  0  0  0  0
   21.5806   18.3102   22.4760 C   0  0  0  0  0  0  0  0  0  0  0  0
   21.6989   17.9767   23.5155 H   0  0  0  0  0  0  0  0  0  0  0  0
   22.5155   18.0390   21.9676 H   0  0  0  0  0  0  0  0  0  0  0  0
   21.4436   19.8555   22.4218 C   0  0  0  0  0  0  0  0  0  0  0  0
   21.4614   20.1966   21.3774 H   0  0  0  0  0  0  0  0  0  0  0  0
   22.3447   20.2813   22.8845 H   0  0  0  0  0  0  0  0  0  0  0  0
   20.2077   20.4409   23.1514 C   0  0  0  0  0  0  0  0  0  0  0  0
   19.9134   19.7939   23.9887 H   0  0  0  0  0  0  0  0  0  0  0  0
   20.4917   21.4006   23.6058 H   0  0  0  0  0  0  0  0  0  0  0  0
   19.0109   20.7016   22.2061 C   0  0  0  0  0  0  0  0  0  0  0  0
   18.1421   21.0622   22.7721 H   0  0  0  0  0  0  0  0  0  0  0  0
   19.2648   21.4712   21.4654 H   0  0  0  0  0  0  0  0  0  0  0  0
   18.7078   19.8044   21.6558 H   0  0  0  0  0  0  0  0  0  0  0  0
  1  2  1  0  0  0  0
  1  3  1  0  0  0  0
  1  4  1  0  0  0  0
  1  5  1  0  0  0  0
  5  6  1  0  0  0  0
  5  7  1  0  0  0  0
  5  8  1  0  0  0  0
  8  9  1  0  0  0  0
  8 10  1  0  0  0  0
  8 11  1  0  0  0  0
 11 12  1  0  0  0  0
 11 13  1  0  0  0  0
 11 14  1  0  0  0  0
 14 15  1  0  0  0  0
 14 16  1  0  0  0  0
 14 17  1  0  0  0  0
 17 18  1  0  0  0  0
 17 19  1  0  0  0  0
 17 20  1  0  0  0  0
M  END
> <VConfSearch Rank>
960

> <Conf_Id>
67

> <Delta U+W>
5.353

> <U+W>
-6.425

> <U>
51.541

> <W>
-57.966

> <W(PB)>
-59.821

> <W(SA)>
1.855

> <Valence>
5.347

> <Coulomb>
45.870

> <VdW>
0.325

> <VdW6>
-6.161

> <VdW12>
6.486

> <Bond>
0.201

> <Angle>
1.485

> <Pdih>
3.662

> <Idih>
0.000

> <Tether>
0.000

$$$$
VeraChem MOL file


 20 19  0  0  0  0  0  0  0  0999 V2000     
   22.2776   17.0166   23.6299 N   0  3  0  0  0  0  0  0  0  0  0  0
   22.4315   16.4802   22.7702 H   0  0  0  0  0  0  0  0  0  0  0  0
   23.1747   17.0467   24.1259 H   0  0  0  0  0  0  0  0  0  0  0  0
   21.6339   16.4728   24.2132 H   0  0  0  0  0  0  0  0  0  0  0  0
   21.7459   18.4064   23.3432 C   0  0  0  0  0  0  0  0  0  0  0  0
   22.4926   18.9370   22.7462 H   0  0  0  0  0  0  0  0  0  0  0  0
   21.6350   18.9289   24.2973 H   0  0  0  0  0  0  0  0  0  0  0  0
   20.3989   18.3970   22.5984 C   0  0  0  0  0  0  0  0  0  0  0  0
   20.5109   17.8576   21.6484 H   0  0  0  0  0  0  0  0  0  0  0  0
   19.6563   17.8495   23.1942 H   0  0  0  0  0  0  0  0  0  0  0  0
   19.8927   19.8310   22.3261 C   0  0  0  0  0  0  0  0  0  0  0  0
   20.6403   20.3775   21.7343 H   0  0  0  0  0  0  0  0  0  0  0  0
   19.7867   20.3694   23.2783 H   0  0  0  0  0  0  0  0  0  0  0  0
   18.5405   19.8339   21.5784 C   0  0  0  0  0  0  0  0  0  0  0  0
   18.6426   19.2980   20.6242 H   0  0  0  0  0  0  0  0  0  0  0  0
   17.7890   19.2900   22.1679 H   0  0  0  0  0  0  0  0  0  0  0  0
   18.0387   21.2686   21.3084 C   0  0  0  0  0  0  0  0  0  0  0  0
   18.7540   21.8276   20.6911 H   0  0  0  0  0  0  0  0  0  0  0  0
   17.0783   21.2499   20.7772 H   0  0  0  0  0  0  0  0  0  0  0  0
   17.8936   21.8195   22.2468 H   0  0  0  0  0  0  0  0  0  0  0  0
  1  2  1  0  0  0  0
  1  3  1  0  0  0  0
  1  4  1  0  0  0  0
  1  5  1  0  0  0  0
  5  6  1  0  0  0  0
  5  7  1  0  0  0  0
  5  8  1  0  0  0  0
  8  9  1  0  0  0  0
  8 10  1  0  0  0  0
  8 11  1  0  0  0  0
 11 12  1  0  0  0  0
 11 13  1  0  0  0  0
 11 14  1  0  0  0  0
 14 15  1  0  0  0  0
 14 16  1  0  0  0  0
 14 17  1  0  0  0  0
 17 18  1  0  0  0  0
 17 19  1  0  0  0  0
 17 20  1  0  0  0  0
M  END
> <VConfSearch Rank>
961

> <Conf_Id>
72

> <Delta U+W>
0.000

> <U+W>
-11.778

> <U>
45.772

> <W>
-57.550

> <W(PB)>
-59.511

> <W(SA)>
1.961

> <Valence>
1.299

> <Coulomb>
44.177

> <VdW>
0.297

> <VdW6>
-3.490

> <VdW12>
3.786

> <Bond>
0.096

> <Angle>
0.381

> <Pdih>
0.822

> <Idih>
0.000

> <Tether>
0.000

$$$$
VeraChem MOL file


 20 19  0  0  0  0  0  0  0  0999 V2000     
   22.7071   17.9122   23.2743 N   0  3  0  0  0  0  0  0  0  0  0  0
   22.3819   17.7893   24.2384 H   0  0  0  0  0  0  0  0  0  0  0  0
   22.5738   17.0162   22.7949 H   0  0  0  0  0  0  0  0  0  0  0  0
   23.7181   18.0770   23.3204 H   0  0  0  0  0  0  0  0  0  0  0  0
   21.9836   19.0435   22.5721 C   0  0  0  0  0  0  0  0  0  0  0  0
   22.4000   19.1369   21.5654 H   0  0  0  0  0  0  0  0  0  0  0  0
   22.1930   19.9680   23.1172 H   0  0  0  0  0  0  0  0  0  0  0  0
   20.4621   18.8273   22.4850 C   0  0  0  0  0  0  0  0  0  0  0  0
   20.2568   17.8900   21.9509 H   0  0  0  0  0  0  0  0  0  0  0  0
   20.0579   18.7173   23.4992 H   0  0  0  0  0  0  0  0  0  0  0  0
   19.7660   20.0032   21.7598 C   0  0  0  0  0  0  0  0  0  0  0  0
   20.2362   20.1460   20.7769 H   0  0  0  0  0  0  0  0  0  0  0  0
   19.9327   20.9340   22.3196 H   0  0  0  0  0  0  0  0  0  0  0  0
   18.2468   19.7889   21.5525 C   0  0  0  0  0  0  0  0  0  0  0  0
   17.8542   20.6147   20.9427 H   0  0  0  0  0  0  0  0  0  0  0  0
   18.0765   18.8712   20.9722 H   0  0  0  0  0  0  0  0  0  0  0  0
   17.4490   19.7234   22.8749 C   0  0  0  0  0  0  0  0  0  0  0  0
   17.6244   20.6176   23.4870 H   0  0  0  0  0  0  0  0  0  0  0  0
   16.3721   19.6627   22.6710 H   0  0  0  0  0  0  0  0  0  0  0  0
   17.7218   18.8415   23.4676 H   0  0  0  0  0  0  0  0  0  0  0  0
  1  2  1  0  0  0  0
  1  3  1  0  0  0  0
  1  4  1  0  0  0  0
  1  5  1  0  0  0  0
  5  6  1  0  0  0  0
  5  7  1  0  0  0  0
  5  8  1  0  0  0  0
  8  9  1  0  0  0  0
  8 10  1  0  0  0  0
  8 11  1  0  0  0  0
 11 12  1  0  0  0  0
 11 13  1  0  0  0  0
 11 14  1  0  0  0  0
 14 15  1  0  0  0  0
 14 16  1  0  0  0  0
 14 17  1  0  0  0  0
 17 18  1  0  0  0  0
 17 19  1  0  0  0  0
 17 20  1  0  0  0  0
M  END
> <VConfSearch Rank>
962

> <Conf_Id>
42

> <Delta U+W>
0.508

> <U+W>
-11.270

> <U>
46.486

> <W>
-57.756

> <W(PB)>
-59.705

> <W(SA)>
1.949

> <Valence>
1.806

> <Coulomb>
44.248

> <VdW>
0.433

> <VdW6>
-4.089

> <VdW12>
4.522

> <Bond>
0.131

> <Angle>
0.628

> <Pdih>
1.047

> <Idih>
0.000

> <Tether>
0.000

$$$$
VeraChem MOL file


 20 19  0  0  0  0  0  0  0  0999 V2000     
   19.4482   21.9710   22.3095 N   0  3  0  0  0  0  0  0  0  0  0  0
   18.6716   21.9617   22.9782 H   0  0  0  0  0  0  0  0  0  0  0  0
   20.2913   22.2318   22.8306 H   0  0  0  0  0  0  0  0  0  0  0  0
   19.2611   22.7313   21.6474 H   0  0  0  0  0  0  0  0  0  0  0  0
   19.6063   20.6380   21.6062 C   0  0  0  0  0  0  0  0  0  0  0  0
   20.4281   20.7292   20.8907 H   0  0  0  0  0  0  0  0  0  0  0  0
   18.6867   20.4394   21.0490 H   0  0  0  0  0  0  0  0  0  0  0  0
   19.8880   19.4734   22.5724 C   0  0  0  0  0  0  0  0  0  0  0  0
   20.8024   19.6915   23.1384 H   0  0  0  0  0  0  0  0  0  0  0  0
   19.0682   19.3956   23.2988 H   0  0  0  0  0  0  0  0  0  0  0  0
   20.0396   18.1344   21.8127 C   0  0  0  0  0  0  0  0  0  0  0  0
   20.8893   18.1967   21.1187 H   0  0  0  0  0  0  0  0  0  0  0  0
   19.1466   17.9716   21.1932 H   0  0  0  0  0  0  0  0  0  0  0  0
   20.2215   16.9121   22.7452 C   0  0  0  0  0  0  0  0  0  0  0  0
   19.3620   16.8320   23.4254 H   0  0  0  0  0  0  0  0  0  0  0  0
   20.2154   15.9985   22.1343 H   0  0  0  0  0  0  0  0  0  0  0  0
   21.5312   16.9539   23.5653 C   0  0  0  0  0  0  0  0  0  0  0  0
   21.5328   17.7852   24.2812 H   0  0  0  0  0  0  0  0  0  0  0  0
   21.6553   16.0258   24.1383 H   0  0  0  0  0  0  0  0  0  0  0  0
   22.4048   17.0623   22.9096 H   0  0  0  0  0  0  0  0  0  0  0  0
  1  2  1  0  0  0  0
  1  3  1  0  0  0  0
  1  4  1  0  0  0  0
  1  5  1  0  0  0  0
  5  6  1  0  0  0  0
  5  7  1  0  0  0  0
  5  8  1  0  0  0  0
  8  9  1  0  0  0  0
  8 10  1  0  0  0  0
  8 11  1  0  0  0  0
 11 12  1  0  0  0  0
 11 13  1  0  0  0  0
 11 14  1  0  0  0  0
 14 15  1  0  0  0  0
 14 16  1  0  0  0  0
 14 17  1  0  0  0  0
 17 18  1  0  0  0  0
 17 19  1  0  0  0  0
 17 20  1  0  0  0  0
M  END
> <VConfSearch Rank>
963

> <Conf_Id>
41

> <Delta U+W>
0.515

> <U+W>
-11.263

> <U>
46.486

> <W>
-57.749

> <W(PB)>
-59.685

> <W(SA)>
1.936

> <Valence>
1.806

> <Coulomb>
44.248

> <VdW>
0.433

> <VdW6>
-4.089

> <VdW12>
4.522

> <Bond>
0.131

> <Angle>
0.628

> <Pdih>
1.047

> <Idih>
0.000

> <Tether>
0.000

$$$$
VeraChem MOL file


 20 19  0  0  0  0  0  0  0  0999 V2000     
   22.3739   18.9241   24.0914 N   0  3  0  0  0  0  0  0  0  0  0  0
   23.0958   19.3403   24.6890 H   0  0  0  0  0  0  0  0  0  0  0  0
   21.6171   18.6160   24.7088 H   0  0  0  0  0  0  0  0  0  0  0  0
   22.7833   18.0838   23.6713 H   0  0  0  0  0  0  0  0  0  0  0  0
   21.8832   19.9000   23.0392 C   0  0  0  0  0  0  0  0  0  0  0  0
   22.7496   20.2152   22.4513 H   0  0  0  0  0  0  0  0  0  0  0  0
   21.4823   20.7789   23.5512 H   0  0  0  0  0  0  0  0  0  0  0  0
   20.8130   19.3160   22.0961 C   0  0  0  0  0  0  0  0  0  0  0  0
   20.6162   20.0546   21.3091 H   0  0  0  0  0  0  0  0  0  0  0  0
   21.2126   18.4235   21.5966 H   0  0  0  0  0  0  0  0  0  0  0  0
   19.4934   18.9686   22.8303 C   0  0  0  0  0  0  0  0  0  0  0  0
   19.0878   19.8710   23.3084 H   0  0  0  0  0  0  0  0  0  0  0  0
   19.7021   18.2572   23.6402 H   0  0  0  0  0  0  0  0  0  0  0  0
   18.4189   18.3463   21.9057 C   0  0  0  0  0  0  0  0  0  0  0  0
   18.8152   17.4354   21.4354 H   0  0  0  0  0  0  0  0  0  0  0  0
   17.5664   18.0272   22.5217 H   0  0  0  0  0  0  0  0  0  0  0  0
   17.9079   19.3149   20.8147 C   0  0  0  0  0  0  0  0  0  0  0  0
   18.6972   19.5667   20.0957 H   0  0  0  0  0  0  0  0  0  0  0  0
   17.0837   18.8584   20.2514 H   0  0  0  0  0  0  0  0  0  0  0  0
   17.5348   20.2476   21.2574 H   0  0  0  0  0  0  0  0  0  0  0  0
  1  2  1  0  0  0  0
  1  3  1  0  0  0  0
  1  4  1  0  0  0  0
  1  5  1  0  0  0  0
  5  6  1  0  0  0  0
  5  7  1  0  0  0  0
  5  8  1  0  0  0  0
  8  9  1  0  0  0  0
  8 10  1  0  0  0  0
  8 11  1  0  0  0  0
 11 12  1  0  0  0  0
 11 13  1  0  0  0  0
 11 14  1  0  0  0  0
 14 15  1  0  0  0  0
 14 16  1  0  0  0  0
 14 17  1  0  0  0  0
 17 18  1  0  0  0  0
 17 19  1  0  0  0  0
 17 20  1  0  0  0  0
M  END
> <VConfSearch Rank>
964

> <Conf_Id>
33

> <Delta U+W>
0.703

> <U+W>
-11.075

> <U>
47.080

> <W>
-58.154

> <W(PB)>
-60.053

> <W(SA)>
1.899

> <Valence>
1.943

> <Coulomb>
44.572

> <VdW>
0.565

> <VdW6>
-4.575

> <VdW12>
5.139

> <Bond>
0.158

> <Angle>
0.700

> <Pdih>
1.085

> <Idih>
0.000

> <Tether>
0.000

$$$$
VeraChem MOL file


 20 19  0  0  0  0  0  0  0  0999 V2000     
   19.8526   18.0289   24.9858 N   0  3  0  0  0  0  0  0  0  0  0  0
   19.3922   17.3923   25.6449 H   0  0  0  0  0  0  0  0  0  0  0  0
   20.8203   18.1389   25.3048 H   0  0  0  0  0  0  0  0  0  0  0  0
   19.3961   18.9405   25.0837 H   0  0  0  0  0  0  0  0  0  0  0  0
   19.7825   17.5116   23.5619 C   0  0  0  0  0  0  0  0  0  0  0  0
   18.7289   17.3955   23.2937 H   0  0  0  0  0  0  0  0  0  0  0  0
   20.2480   16.5224   23.5464 H   0  0  0  0  0  0  0  0  0  0  0  0
   20.4827   18.4200   22.5320 C   0  0  0  0  0  0  0  0  0  0  0  0
   21.5362   18.5489   22.8135 H   0  0  0  0  0  0  0  0  0  0  0  0
   20.4772   17.9019   21.5650 H   0  0  0  0  0  0  0  0  0  0  0  0
   19.7973   19.8024   22.3895 C   0  0  0  0  0  0  0  0  0  0  0  0
   19.7730   20.3009   23.3675 H   0  0  0  0  0  0  0  0  0  0  0  0
   18.7501   19.6663   22.0858 H   0  0  0  0  0  0  0  0  0  0  0  0
   20.5084   20.7425   21.3858 C   0  0  0  0  0  0  0  0  0  0  0  0
   20.0305   21.7312   21.4303 H   0  0  0  0  0  0  0  0  0  0  0  0
   21.5529   20.8928   21.6928 H   0  0  0  0  0  0  0  0  0  0  0  0
   20.4631   20.2345   19.9264 C   0  0  0  0  0  0  0  0  0  0  0  0
   19.4304   20.0462   19.6053 H   0  0  0  0  0  0  0  0  0  0  0  0
   20.8945   20.9807   19.2467 H   0  0  0  0  0  0  0  0  0  0  0  0
   21.0365   19.3075   19.8031 H   0  0  0  0  0  0  0  0  0  0  0  0
  1  2  1  0  0  0  0
  1  3  1  0  0  0  0
  1  4  1  0  0  0  0
  1  5  1  0  0  0  0
  5  6  1  0  0  0  0
  5  7  1  0  0  0  0
  5  8  1  0  0  0  0
  8  9  1  0  0  0  0
  8 10  1  0  0  0  0
  8 11  1  0  0  0  0
 11 12  1  0  0  0  0
 11 13  1  0  0  0  0
 11 14  1  0  0  0  0
 14 15  1  0  0  0  0
 14 16  1  0  0  0  0
 14 17  1  0  0  0  0
 17 18  1  0  0  0  0
 17 19  1  0  0  0  0
 17 20  1  0  0  0  0
M  END
> <VConfSearch Rank>
965

> <Conf_Id>
24

> <Delta U+W>
0.847

> <U+W>
-10.931

> <U>
47.080

> <W>
-58.011

> <W(PB)>
-59.914

> <W(SA)>
1.903

> <Valence>
1.943

> <Coulomb>
44.572

> <VdW>
0.565

> <VdW6>
-4.575

> <VdW12>
5.140

> <Bond>
0.158

> <Angle>
0.700

> <Pdih>
1.085

> <Idih>
0.000

> <Tether>
0.000

$$$$
VeraChem MOL file


 20 19  0  0  0  0  0  0  0  0999 V2000     
   22.7568   18.4015   22.5755 N   0  3  0  0  0  0  0  0  0  0  0  0
   23.3669   18.1945   21.7777 H   0  0  0  0  0  0  0  0  0  0  0  0
   23.0516   19.3097   22.9475 H   0  0  0  0  0  0  0  0  0  0  0  0
   22.9609   17.7007   23.2949 H   0  0  0  0  0  0  0  0  0  0  0  0
   21.2936   18.3985   22.1812 C   0  0  0  0  0  0  0  0  0  0  0  0
   21.0568   17.4144   21.7680 H   0  0  0  0  0  0  0  0  0  0  0  0
   21.1566   19.1442   21.3937 H   0  0  0  0  0  0  0  0  0  0  0  0
   20.3490   18.7070   23.3581 C   0  0  0  0  0  0  0  0  0  0  0  0
   20.5242   17.9774   24.1598 H   0  0  0  0  0  0  0  0  0  0  0  0
   20.5918   19.6909   23.7795 H   0  0  0  0  0  0  0  0  0  0  0  0
   18.8538   18.6573   22.9556 C   0  0  0  0  0  0  0  0  0  0  0  0
   18.2394   18.8738   23.8404 H   0  0  0  0  0  0  0  0  0  0  0  0
   18.5995   17.6314   22.6550 H   0  0  0  0  0  0  0  0  0  0  0  0
   18.4550   19.6254   21.8124 C   0  0  0  0  0  0  0  0  0  0  0  0
   18.9823   19.3574   20.8867 H   0  0  0  0  0  0  0  0  0  0  0  0
   17.3851   19.4927   21.5985 H   0  0  0  0  0  0  0  0  0  0  0  0
   18.7150   21.1118   22.1470 C   0  0  0  0  0  0  0  0  0  0  0  0
   18.3312   21.7587   21.3476 H   0  0  0  0  0  0  0  0  0  0  0  0
   18.2147   21.3997   23.0808 H   0  0  0  0  0  0  0  0  0  0  0  0
   19.7871   21.3193   22.2527 H   0  0  0  0  0  0  0  0  0  0  0  0
  1  2  1  0  0  0  0
  1  3  1  0  0  0  0
  1  4  1  0  0  0  0
  1  5  1  0  0  0  0
  5  6  1  0  0  0  0
  5  7  1  0  0  0  0
  5  8  1  0  0  0  0
  8  9  1  0  0  0  0
  8 10  1  0  0  0  0
  8 11  1  0  0  0  0
 11 12  1  0  0  0  0
 11 13  1  0  0  0  0
 11 14  1  0  0  0  0
 14 15  1  0  0  0  0
 14 16  1  0  0  0  0
 14 17  1  0  0  0  0
 17 18  1  0  0  0  0
 17 19  1  0  0  0  0
 17 20  1  0  0  0  0
M  END
> <VConfSearch Rank>
966

> <Conf_Id>
64

> <Delta U+W>
0.707

> <U+W>
-11.070

> <U>
47.077

> <W>
-58.148

> <W(PB)>
-60.054

> <W(SA)>
1.906

> <Valence>
2.039

> <Coulomb>
44.655

> <VdW>
0.383

> <VdW6>
-4.912

> <VdW12>
5.295

> <Bond>
0.159

> <Angle>
0.856

> <Pdih>
1.024

> <Idih>
0.000

> <Tether>
0.000

$$$$
VeraChem MOL file


 20 19  0  0  0  0  0  0  0  0999 V2000     
   21.8087   17.1059   23.5512 N   0  3  0  0  0  0  0  0  0  0  0  0
   22.3844   17.4134   24.3413 H   0  0  0  0  0  0  0  0  0  0  0  0
   20.9983   16.6152   23.9421 H   0  0  0  0  0  0  0  0  0  0  0  0
   22.3581   16.4098   23.0364 H   0  0  0  0  0  0  0  0  0  0  0  0
   21.3965   18.2648   22.6662 C   0  0  0  0  0  0  0  0  0  0  0  0
   20.8148   17.8610   21.8334 H   0  0  0  0  0  0  0  0  0  0  0  0
   22.3043   18.7213   22.2624 H   0  0  0  0  0  0  0  0  0  0  0  0
   20.5682   19.3295   23.4097 C   0  0  0  0  0  0  0  0  0  0  0  0
   19.6612   18.8703   23.8233 H   0  0  0  0  0  0  0  0  0  0  0  0
   21.1451   19.6982   24.2682 H   0  0  0  0  0  0  0  0  0  0  0  0
   20.1899   20.5317   22.5089 C   0  0  0  0  0  0  0  0  0  0  0  0
   21.1085   21.0537   22.2067 H   0  0  0  0  0  0  0  0  0  0  0  0
   19.6135   21.2544   23.1027 H   0  0  0  0  0  0  0  0  0  0  0  0
   19.3840   20.1636   21.2367 C   0  0  0  0  0  0  0  0  0  0  0  0
   19.1886   21.0834   20.6677 H   0  0  0  0  0  0  0  0  0  0  0  0
   19.9867   19.5243   20.5773 H   0  0  0  0  0  0  0  0  0  0  0  0
   18.0362   19.4714   21.5420 C   0  0  0  0  0  0  0  0  0  0  0  0
   17.4227   20.0819   22.2171 H   0  0  0  0  0  0  0  0  0  0  0  0
   17.4652   19.3170   20.6173 H   0  0  0  0  0  0  0  0  0  0  0  0
   18.1843   18.4882   22.0058 H   0  0  0  0  0  0  0  0  0  0  0  0
  1  2  1  0  0  0  0
  1  3  1  0  0  0  0
  1  4  1  0  0  0  0
  1  5  1  0  0  0  0
  5  6  1  0  0  0  0
  5  7  1  0  0  0  0
  5  8  1  0  0  0  0
  8  9  1  0  0  0  0
  8 10  1  0  0  0  0
  8 11  1  0  0  0  0
 11 12  1  0  0  0  0
 11 13  1  0  0  0  0
 11 14  1  0  0  0  0
 14 15  1  0  0  0  0
 14 16  1  0  0  0  0
 14 17  1  0  0  0  0
 17 18  1  0  0  0  0
 17 19  1  0  0  0  0
 17 20  1  0  0  0  0
M  END
> <VConfSearch Rank>
967

> <Conf_Id>
22

> <Delta U+W>
0.731

> <U+W>
-11.047

> <U>
47.078

> <W>
-58.125

> <W(PB)>
-60.031

> <W(SA)>
1.906

> <Valence>
2.039

> <Coulomb>
44.655

> <VdW>
0.383

> <VdW6>
-4.913

> <VdW12>
5.296

> <Bond>
0.159

> <Angle>
0.856

> <Pdih>
1.024

> <Idih>
0.000

> <Tether>
0.000

$$$$
VeraChem MOL file


 20 19  0  0  0  0  0  0  0  0999 V2000     
   20.9151   21.3157   24.0938 N   0  3  0  0  0  0  0  0  0  0  0  0
   21.7249   21.6885   23.5882 H   0  0  0  0  0  0  0  0  0  0  0  0
   20.2112   22.0599   24.1256 H   0  0  0  0  0  0  0  0  0  0  0  0
   21.2175   21.1514   25.0598 H   0  0  0  0  0  0  0  0  0  0  0  0
   20.3769   20.0540   23.4495 C   0  0  0  0  0  0  0  0  0  0  0  0
   19.5372   19.6980   24.0524 H   0  0  0  0  0  0  0  0  0  0  0  0
   21.1694   19.3027   23.4789 H   0  0  0  0  0  0  0  0  0  0  0  0
   19.9193   20.2661   21.9955 C   0  0  0  0  0  0  0  0  0  0  0  0
   19.2116   21.1053   21.9670 H   0  0  0  0  0  0  0  0  0  0  0  0
   20.7792   20.5650   21.3815 H   0  0  0  0  0  0  0  0  0  0  0  0
   19.2356   19.0265   21.3648 C   0  0  0  0  0  0  0  0  0  0  0  0
   18.8725   19.3205   20.3702 H   0  0  0  0  0  0  0  0  0  0  0  0
   18.3393   18.7548   21.9394 H   0  0  0  0  0  0  0  0  0  0  0  0
   20.1560   17.7902   21.1922 C   0  0  0  0  0  0  0  0  0  0  0  0
   19.7893   17.2041   20.3377 H   0  0  0  0  0  0  0  0  0  0  0  0
   21.1740   18.1069   20.9259 H   0  0  0  0  0  0  0  0  0  0  0  0
   20.1898   16.8568   22.4253 C   0  0  0  0  0  0  0  0  0  0  0  0
   20.6309   17.3420   23.3022 H   0  0  0  0  0  0  0  0  0  0  0  0
   19.1795   16.5217   22.6934 H   0  0  0  0  0  0  0  0  0  0  0  0
   20.7893   15.9626   22.2105 H   0  0  0  0  0  0  0  0  0  0  0  0
  1  2  1  0  0  0  0
  1  3  1  0  0  0  0
  1  4  1  0  0  0  0
  1  5  1  0  0  0  0
  5  6  1  0  0  0  0
  5  7  1  0  0  0  0
  5  8  1  0  0  0  0
  8  9  1  0  0  0  0
  8 10  1  0  0  0  0
  8 11  1  0  0  0  0
 11 12  1  0  0  0  0
 11 13  1  0  0  0  0
 11 14  1  0  0  0  0
 14 15  1  0  0  0  0
 14 16  1  0  0  0  0
 14 17  1  0  0  0  0
 17 18  1  0  0  0  0
 17 19  1  0  0  0  0
 17 20  1  0  0  0  0
M  END
> <VConfSearch Rank>
968

> <Conf_Id>
61

> <Delta U+W>
2.669

> <U+W>
-9.108

> <U>
48.916

> <W>
-58.025

> <W(PB)>
-59.935

> <W(SA)>
1.911

> <Valence>
3.785

> <Coulomb>
44.716

> <VdW>
0.415

> <VdW6>
-4.836

> <VdW12>
5.251

> <Bond>
0.175

> <Angle>
1.195

> <Pdih>
2.415

> <Idih>
0.000

> <Tether>
0.000

$$$$
VeraChem MOL file


 20 19  0  0  0  0  0  0  0  0999 V2000     
   19.1234   18.6897   20.3968 N   0  3  0  0  0  0  0  0  0  0  0  0
   19.0276   18.0377   19.6111 H   0  0  0  0  0  0  0  0  0  0  0  0
   18.6122   19.5401   20.1403 H   0  0  0  0  0  0  0  0  0  0  0  0
   20.1135   18.9401   20.4605 H   0  0  0  0  0  0  0  0  0  0  0  0
   18.6055   18.0906   21.6903 C   0  0  0  0  0  0  0  0  0  0  0  0
   19.1445   17.1593   21.8837 H   0  0  0  0  0  0  0  0  0  0  0  0
   17.5528   17.8439   21.5274 H   0  0  0  0  0  0  0  0  0  0  0  0
   18.7173   19.0245   22.9138 C   0  0  0  0  0  0  0  0  0  0  0  0
   18.4219   20.0452   22.6366 H   0  0  0  0  0  0  0  0  0  0  0  0
   17.9814   18.6900   23.6571 H   0  0  0  0  0  0  0  0  0  0  0  0
   20.1101   19.0309   23.5949 C   0  0  0  0  0  0  0  0  0  0  0  0
   20.3643   18.0119   23.9179 H   0  0  0  0  0  0  0  0  0  0  0  0
   20.0393   19.6329   24.5114 H   0  0  0  0  0  0  0  0  0  0  0  0
   21.2515   19.5930   22.7154 C   0  0  0  0  0  0  0  0  0  0  0  0
   21.4403   18.9206   21.8692 H   0  0  0  0  0  0  0  0  0  0  0  0
   20.9585   20.5677   22.3005 H   0  0  0  0  0  0  0  0  0  0  0  0
   22.5608   19.7529   23.5173 C   0  0  0  0  0  0  0  0  0  0  0  0
   23.3626   20.1432   22.8771 H   0  0  0  0  0  0  0  0  0  0  0  0
   22.4295   20.4511   24.3543 H   0  0  0  0  0  0  0  0  0  0  0  0
   22.8943   18.7897   23.9250 H   0  0  0  0  0  0  0  0  0  0  0  0
  1  2  1  0  0  0  0
  1  3  1  0  0  0  0
  1  4  1  0  0  0  0
  1  5  1  0  0  0  0
  5  6  1  0  0  0  0
  5  7  1  0  0  0  0
  5  8  1  0  0  0  0
  8  9  1  0  0  0  0
  8 10  1  0  0  0  0
  8 11  1  0  0  0  0
 11 12  1  0  0  0  0
 11 13  1  0  0  0  0
 11 14  1  0  0  0  0
 14 15  1  0  0  0  0
 14 16  1  0  0  0  0
 14 17  1  0  0  0  0
 17 18  1  0  0  0  0
 17 19  1  0  0  0  0
 17 20  1  0  0  0  0
M  END
> <VConfSearch Rank>
969

> <Conf_Id>
69

> <Delta U+W>
2.811

> <U+W>
-8.967

> <U>
49.216

> <W>
-58.183

> <W(PB)>
-60.064

> <W(SA)>
1.881

> <Valence>
2.929

> <Coulomb>
46.006

> <VdW>
0.281

> <VdW6>
-4.909

> <VdW12>
5.190

> <Bond>
0.156

> <Angle>
0.974

> <Pdih>
1.799

> <Idih>
0.000

> <Tether>
0.000

$$$$
VeraChem MOL file


 20 19  0  0  0  0  0  0  0  0999 V2000     
   18.4336   20.6782   22.9502 N   0  3  0  0  0  0  0  0  0  0  0  0
   19.3167   20.6527   23.4665 H   0  0  0  0  0  0  0  0  0  0  0  0
   18.4926   21.4583   22.2882 H   0  0  0  0  0  0  0  0  0  0  0  0
   17.6977   20.9157   23.6238 H   0  0  0  0  0  0  0  0  0  0  0  0
   18.1491   19.3645   22.2476 C   0  0  0  0  0  0  0  0  0  0  0  0
   17.1890   19.4784   21.7370 H   0  0  0  0  0  0  0  0  0  0  0  0
   18.0392   18.5817   23.0029 H   0  0  0  0  0  0  0  0  0  0  0  0
   19.2190   18.9502   21.2154 C   0  0  0  0  0  0  0  0  0  0  0  0
   18.7474   18.2572   20.5061 H   0  0  0  0  0  0  0  0  0  0  0  0
   19.5285   19.8217   20.6235 H   0  0  0  0  0  0  0  0  0  0  0  0
   20.4575   18.2400   21.8201 C   0  0  0  0  0  0  0  0  0  0  0  0
   21.0892   17.8906   20.9917 H   0  0  0  0  0  0  0  0  0  0  0  0
   20.1354   17.3385   22.3596 H   0  0  0  0  0  0  0  0  0  0  0  0
   21.3100   19.1258   22.7587 C   0  0  0  0  0  0  0  0  0  0  0  0
   21.5457   20.0777   22.2624 H   0  0  0  0  0  0  0  0  0  0  0  0
   20.7447   19.3623   23.6688 H   0  0  0  0  0  0  0  0  0  0  0  0
   22.6235   18.4236   23.1649 C   0  0  0  0  0  0  0  0  0  0  0  0
   23.2423   18.2025   22.2855 H   0  0  0  0  0  0  0  0  0  0  0  0
   23.2118   19.0607   23.8379 H   0  0  0  0  0  0  0  0  0  0  0  0
   22.4212   17.4791   23.6867 H   0  0  0  0  0  0  0  0  0  0  0  0
  1  2  1  0  0  0  0
  1  3  1  0  0  0  0
  1  4  1  0  0  0  0
  1  5  1  0  0  0  0
  5  6  1  0  0  0  0
  5  7  1  0  0  0  0
  5  8  1  0  0  0  0
  8  9  1  0  0  0  0
  8 10  1  0  0  0  0
  8 11  1  0  0  0  0
 11 12  1  0  0  0  0
 11 13  1  0  0  0  0
 11 14  1  0  0  0  0
 14 15  1  0  0  0  0
 14 16  1  0  0  0  0
 14 17  1  0  0  0  0
 17 18  1  0  0  0  0
 17 19  1  0  0  0  0
 17 20  1  0  0  0  0
M  END
> <VConfSearch Rank>
970

> <Conf_Id>
26

> <Delta U+W>
2.809

> <U+W>
-8.969

> <U>
49.216

> <W>
-58.185

> <W(PB)>
-60.088

> <W(SA)>
1.903

> <Valence>
2.929

> <Coulomb>
46.006

> <VdW>
0.281

> <VdW6>
-4.909

> <VdW12>
5.190

> <Bond>
0.156

> <Angle>
0.974

> <Pdih>
1.799

> <Idih>
0.000

> <Tether>
0.000

$$$$
VeraChem MOL file


 20 19  0  0  0  0  0  0  0  0999 V2000     
   19.6769   19.8909   24.7295 N   0  3  0  0  0  0  0  0  0  0  0  0
   18.8619   19.3569   24.4140 H   0  0  0  0  0  0  0  0  0  0  0  0
   20.1146   19.3565   25.4864 H   0  0  0  0  0  0  0  0  0  0  0  0
   19.3249   20.7606   25.1431 H   0  0  0  0  0  0  0  0  0  0  0  0
   20.6461   20.1582   23.5945 C   0  0  0  0  0  0  0  0  0  0  0  0
   21.4705   20.7550   23.9941 H   0  0  0  0  0  0  0  0  0  0  0  0
   20.1291   20.7567   22.8399 H   0  0  0  0  0  0  0  0  0  0  0  0
   21.2091   18.8774   22.9458 C   0  0  0  0  0  0  0  0  0  0  0  0
   21.9544   19.1609   22.1917 H   0  0  0  0  0  0  0  0  0  0  0  0
   21.7550   18.3007   23.7042 H   0  0  0  0  0  0  0  0  0  0  0  0
   20.1292   17.9726   22.2960 C   0  0  0  0  0  0  0  0  0  0  0  0
   19.4812   17.5593   23.0806 H   0  0  0  0  0  0  0  0  0  0  0  0
   20.6243   17.1074   21.8340 H   0  0  0  0  0  0  0  0  0  0  0  0
   19.2457   18.6750   21.2335 C   0  0  0  0  0  0  0  0  0  0  0  0
   18.5073   17.9527   20.8584 H   0  0  0  0  0  0  0  0  0  0  0  0
   18.6663   19.4855   21.6961 H   0  0  0  0  0  0  0  0  0  0  0  0
   20.0509   19.2304   20.0368 C   0  0  0  0  0  0  0  0  0  0  0  0
   20.6527   18.4422   19.5661 H   0  0  0  0  0  0  0  0  0  0  0  0
   19.3745   19.6369   19.2738 H   0  0  0  0  0  0  0  0  0  0  0  0
   20.7244   20.0395   20.3453 H   0  0  0  0  0  0  0  0  0  0  0  0
  1  2  1  0  0  0  0
  1  3  1  0  0  0  0
  1  4  1  0  0  0  0
  1  5  1  0  0  0  0
  5  6  1  0  0  0  0
  5  7  1  0  0  0  0
  5  8  1  0  0  0  0
  8  9  1  0  0  0  0
  8 10  1  0  0  0  0
  8 11  1  0  0  0  0
 11 12  1  0  0  0  0
 11 13  1  0  0  0  0
 11 14  1  0  0  0  0
 14 15  1  0  0  0  0
 14 16  1  0  0  0  0
 14 17  1  0  0  0  0
 17 18  1  0  0  0  0
 17 19  1  0  0  0  0
 17 20  1  0  0  0  0
M  END
> <VConfSearch Rank>
971

> <Conf_Id>
2

> <Delta U+W>
0.994

> <U+W>
-10.784

> <U>
47.562

> <W>
-58.346

> <W(PB)>
-60.221

> <W(SA)>
1.875

> <Valence>
2.149

> <Coulomb>
45.034

> <VdW>
0.378

> <VdW6>
-5.599

> <VdW12>
5.977

> <Bond>
0.185

> <Angle>
0.935

> <Pdih>
1.028

> <Idih>
0.000

> <Tether>
0.000

$$$$
VeraChem MOL file


 20 19  0  0  0  0  0  0  0  0999 V2000     
   20.0571   20.9785   23.9621 N   0  3  0  0  0  0  0  0  0  0  0  0
   19.2188   21.0647   24.5451 H   0  0  0  0  0  0  0  0  0  0  0  0
   20.6630   20.2813   24.4046 H   0  0  0  0  0  0  0  0  0  0  0  0
   20.5479   21.8774   24.0104 H   0  0  0  0  0  0  0  0  0  0  0  0
   19.7145   20.5991   22.5347 C   0  0  0  0  0  0  0  0  0  0  0  0
   20.6445   20.5564   21.9617 H   0  0  0  0  0  0  0  0  0  0  0  0
   19.0955   21.3979   22.1172 H   0  0  0  0  0  0  0  0  0  0  0  0
   18.9669   19.2557   22.4129 C   0  0  0  0  0  0  0  0  0  0  0  0
   18.0191   19.3209   22.9634 H   0  0  0  0  0  0  0  0  0  0  0  0
   18.6924   19.0976   21.3622 H   0  0  0  0  0  0  0  0  0  0  0  0
   19.7744   18.0358   22.9294 C   0  0  0  0  0  0  0  0  0  0  0  0
   19.1791   17.1258   22.7723 H   0  0  0  0  0  0  0  0  0  0  0  0
   19.9055   18.1205   24.0165 H   0  0  0  0  0  0  0  0  0  0  0  0
   21.1645   17.8494   22.2691 C   0  0  0  0  0  0  0  0  0  0  0  0
   21.8113   18.7078   22.4955 H   0  0  0  0  0  0  0  0  0  0  0  0
   21.6535   16.9756   22.7222 H   0  0  0  0  0  0  0  0  0  0  0  0
   21.0936   17.6422   20.7391 C   0  0  0  0  0  0  0  0  0  0  0  0
   20.7161   18.5369   20.2286 H   0  0  0  0  0  0  0  0  0  0  0  0
   22.0907   17.4269   20.3336 H   0  0  0  0  0  0  0  0  0  0  0  0
   20.4388   16.7988   20.4848 H   0  0  0  0  0  0  0  0  0  0  0  0
  1  2  1  0  0  0  0
  1  3  1  0  0  0  0
  1  4  1  0  0  0  0
  1  5  1  0  0  0  0
  5  6  1  0  0  0  0
  5  7  1  0  0  0  0
  5  8  1  0  0  0  0
  8  9  1  0  0  0  0
  8 10  1  0  0  0  0
  8 11  1  0  0  0  0
 11 12  1  0  0  0  0
 11 13  1  0  0  0  0
 11 14  1  0  0  0  0
 14 15  1  0  0  0  0
 14 16  1  0  0  0  0
 14 17  1  0  0  0  0
 17 18  1  0  0  0  0
 17 19  1  0  0  0  0
 17 20  1  0  0  0  0
M  END
> <VConfSearch Rank>
972

> <Conf_Id>
1

> <Delta U+W>
1.032

> <U+W>
-10.746

> <U>
47.562

> <W>
-58.308

> <W(PB)>
-60.184

> <W(SA)>
1.877

> <Valence>
2.149

> <Coulomb>
45.035

> <VdW>
0.378

> <VdW6>
-5.599

> <VdW12>
5.978

> <Bond>
0.185

> <Angle>
0.935

> <Pdih>
1.028

> <Idih>
0.000

> <Tether>
0.000

$$$$
VeraChem MOL file


 20 19  0  0  0  0  0  0  0  0999 V2000     
   18.5818   19.2858   24.1251 N   0  3  0  0  0  0  0  0  0  0  0  0
   17.6016   19.3458   23.8326 H   0  0  0  0  0  0  0  0  0  0  0  0
   18.8597   18.3028   24.0531 H   0  0  0  0  0  0  0  0  0  0  0  0
   18.6118   19.5332   25.1197 H   0  0  0  0  0  0  0  0  0  0  0  0
   19.4750   20.1862   23.2938 C   0  0  0  0  0  0  0  0  0  0  0  0
   20.4927   20.0968   23.6771 H   0  0  0  0  0  0  0  0  0  0  0  0
   19.1445   21.2159   23.4551 H   0  0  0  0  0  0  0  0  0  0  0  0
   19.4408   19.8750   21.7823 C   0  0  0  0  0  0  0  0  0  0  0  0
   18.4016   19.9661   21.4394 H   0  0  0  0  0  0  0  0  0  0  0  0
   20.0046   20.6452   21.2396 H   0  0  0  0  0  0  0  0  0  0  0  0
   19.9754   18.4695   21.3961 C   0  0  0  0  0  0  0  0  0  0  0  0
   19.5343   18.1964   20.4274 H   0  0  0  0  0  0  0  0  0  0  0  0
   19.6174   17.7109   22.1040 H   0  0  0  0  0  0  0  0  0  0  0  0
   21.5156   18.3707   21.2477 C   0  0  0  0  0  0  0  0  0  0  0  0
   21.7625   17.3632   20.8846 H   0  0  0  0  0  0  0  0  0  0  0  0
   21.8582   19.0655   20.4682 H   0  0  0  0  0  0  0  0  0  0  0  0
   22.3052   18.6297   22.5498 C   0  0  0  0  0  0  0  0  0  0  0  0
   21.9108   18.0317   23.3814 H   0  0  0  0  0  0  0  0  0  0  0  0
   23.3611   18.3616   22.4156 H   0  0  0  0  0  0  0  0  0  0  0  0
   22.2747   19.6888   22.8315 H   0  0  0  0  0  0  0  0  0  0  0  0
  1  2  1  0  0  0  0
  1  3  1  0  0  0  0
  1  4  1  0  0  0  0
  1  5  1  0  0  0  0
  5  6  1  0  0  0  0
  5  7  1  0  0  0  0
  5  8  1  0  0  0  0
  8  9  1  0  0  0  0
  8 10  1  0  0  0  0
  8 11  1  0  0  0  0
 11 12  1  0  0  0  0
 11 13  1  0  0  0  0
 11 14  1  0  0  0  0
 14 15  1  0  0  0  0
 14 16  1  0  0  0  0
 14 17  1  0  0  0  0
 17 18  1  0  0  0  0
 17 19  1  0  0  0  0
 17 20  1  0  0  0  0
M  END
> <VConfSearch Rank>
973

> <Conf_Id>
80

> <Delta U+W>
2.920

> <U+W>
-8.857

> <U>
49.434

> <W>
-58.292

> <W(PB)>
-60.170

> <W(SA)>
1.879

> <Valence>
3.798

> <Coulomb>
45.253

> <VdW>
0.384

> <VdW6>
-5.595

> <VdW12>
5.979

> <Bond>
0.198

> <Angle>
1.368

> <Pdih>
2.231

> <Idih>
0.000

> <Tether>
0.000

$$$$
VeraChem MOL file


 20 19  0  0  0  0  0  0  0  0999 V2000     
   18.3790   17.7680   22.7884 N   0  3  0  0  0  0  0  0  0  0  0  0
   18.0124   17.6286   23.7351 H   0  0  0  0  0  0  0  0  0  0  0  0
   17.6872   17.3771   22.1404 H   0  0  0  0  0  0  0  0  0  0  0  0
   19.2244   17.1961   22.7038 H   0  0  0  0  0  0  0  0  0  0  0  0
   18.6569   19.2307   22.5003 C   0  0  0  0  0  0  0  0  0  0  0  0
   17.7055   19.7652   22.5681 H   0  0  0  0  0  0  0  0  0  0  0  0
   19.0129   19.3090   21.4719 H   0  0  0  0  0  0  0  0  0  0  0  0
   19.6697   19.8759   23.4702 C   0  0  0  0  0  0  0  0  0  0  0  0
   19.7175   20.9562   23.2803 H   0  0  0  0  0  0  0  0  0  0  0  0
   19.2798   19.7675   24.4911 H   0  0  0  0  0  0  0  0  0  0  0  0
   21.0993   19.2733   23.4123 C   0  0  0  0  0  0  0  0  0  0  0  0
   21.0558   18.1791   23.3388 H   0  0  0  0  0  0  0  0  0  0  0  0
   21.5915   19.4823   24.3723 H   0  0  0  0  0  0  0  0  0  0  0  0
   22.0076   19.8438   22.2926 C   0  0  0  0  0  0  0  0  0  0  0  0
   22.1257   20.9281   22.4275 H   0  0  0  0  0  0  0  0  0  0  0  0
   23.0118   19.4132   22.4111 H   0  0  0  0  0  0  0  0  0  0  0  0
   21.5167   19.5553   20.8567 C   0  0  0  0  0  0  0  0  0  0  0  0
   20.6284   20.1492   20.6112 H   0  0  0  0  0  0  0  0  0  0  0  0
   22.2934   19.8196   20.1275 H   0  0  0  0  0  0  0  0  0  0  0  0
   21.2789   18.4922   20.7223 H   0  0  0  0  0  0  0  0  0  0  0  0
  1  2  1  0  0  0  0
  1  3  1  0  0  0  0
  1  4  1  0  0  0  0
  1  5  1  0  0  0  0
  5  6  1  0  0  0  0
  5  7  1  0  0  0  0
  5  8  1  0  0  0  0
  8  9  1  0  0  0  0
  8 10  1  0  0  0  0
  8 11  1  0  0  0  0
 11 12  1  0  0  0  0
 11 13  1  0  0  0  0
 11 14  1  0  0  0  0
 14 15  1  0  0  0  0
 14 16  1  0  0  0  0
 14 17  1  0  0  0  0
 17 18  1  0  0  0  0
 17 19  1  0  0  0  0
 17 20  1  0  0  0  0
M  END
> <VConfSearch Rank>
974

> <Conf_Id>
65

> <Delta U+W>
2.949

> <U+W>
-8.829

> <U>
49.435

> <W>
-58.263

> <W(PB)>
-60.125

> <W(SA)>
1.862

> <Valence>
3.797

> <Coulomb>
45.253

> <VdW>
0.384

> <VdW6>
-5.596

> <VdW12>
5.980

> <Bond>
0.198

> <Angle>
1.369

> <Pdih>
2.230

> <Idih>
0.000

> <Tether>
0.000

$$$$
VeraChem MOL file


 20 19  0  0  0  0  0  0  0  0999 V2000     
   19.8761   19.7974   20.5794 N   0  3  0  0  0  0  0  0  0  0  0  0
   19.3823   19.4688   19.7428 H   0  0  0  0  0  0  0  0  0  0  0  0
   19.1696   19.9878   21.2966 H   0  0  0  0  0  0  0  0  0  0  0  0
   20.3122   20.6923   20.3357 H   0  0  0  0  0  0  0  0  0  0  0  0
   20.8979   18.7872   21.0640 C   0  0  0  0  0  0  0  0  0  0  0  0
   21.6127   18.6402   20.2498 H   0  0  0  0  0  0  0  0  0  0  0  0
   20.3913   17.8357   21.2464 H   0  0  0  0  0  0  0  0  0  0  0  0
   21.6608   19.2258   22.3305 C   0  0  0  0  0  0  0  0  0  0  0  0
   22.6107   18.6755   22.3550 H   0  0  0  0  0  0  0  0  0  0  0  0
   21.9327   20.2868   22.2520 H   0  0  0  0  0  0  0  0  0  0  0  0
   20.9250   18.9594   23.6712 C   0  0  0  0  0  0  0  0  0  0  0  0
   21.5997   19.2664   24.4825 H   0  0  0  0  0  0  0  0  0  0  0  0
   20.7749   17.8795   23.8079 H   0  0  0  0  0  0  0  0  0  0  0  0
   19.5816   19.7105   23.8547 C   0  0  0  0  0  0  0  0  0  0  0  0
   19.4789   19.9904   24.9127 H   0  0  0  0  0  0  0  0  0  0  0  0
   19.5917   20.6577   23.2989 H   0  0  0  0  0  0  0  0  0  0  0  0
   18.3503   18.8562   23.4704 C   0  0  0  0  0  0  0  0  0  0  0  0
   18.4079   18.4745   22.4454 H   0  0  0  0  0  0  0  0  0  0  0  0
   18.2577   17.9901   24.1387 H   0  0  0  0  0  0  0  0  0  0  0  0
   17.4276   19.4439   23.5623 H   0  0  0  0  0  0  0  0  0  0  0  0
  1  2  1  0  0  0  0
  1  3  1  0  0  0  0
  1  4  1  0  0  0  0
  1  5  1  0  0  0  0
  5  6  1  0  0  0  0
  5  7  1  0  0  0  0
  5  8  1  0  0  0  0
  8  9  1  0  0  0  0
  8 10  1  0  0  0  0
  8 11  1  0  0  0  0
 11 12  1  0  0  0  0
 11 13  1  0  0  0  0
 11 14  1  0  0  0  0
 14 15  1  0  0  0  0
 14 16  1  0  0  0  0
 14 17  1  0  0  0  0
 17 18  1  0  0  0  0
 17 19  1  0  0  0  0
 17 20  1  0  0  0  0
M  END
> <VConfSearch Rank>
975

> <Conf_Id>
77

> <Delta U+W>
5.366

> <U+W>
-6.412

> <U>
51.542

> <W>
-57.954

> <W(PB)>
-59.811

> <W(SA)>
1.857

> <Valence>
5.347

> <Coulomb>
45.870

> <VdW>
0.325

> <VdW6>
-6.161

> <VdW12>
6.486

> <Bond>
0.201

> <Angle>
1.484

> <Pdih>
3.662

> <Idih>
0.000

> <Tether>
0.000

$$$$
VeraChem MOL file


 20 19  0  0  0  0  0  0  0  0999 V2000     
   21.5248   18.2240   23.6793 N   0  3  0  0  0  0  0  0  0  0  0  0
   22.4715   18.1281   23.2984 H   0  0  0  0  0  0  0  0  0  0  0  0
   21.3051   19.2245   23.7018 H   0  0  0  0  0  0  0  0  0  0  0  0
   21.5595   17.8963   24.6504 H   0  0  0  0  0  0  0  0  0  0  0  0
   20.5081   17.4527   22.8601 C   0  0  0  0  0  0  0  0  0  0  0  0
   19.5318   17.5349   23.3452 H   0  0  0  0  0  0  0  0  0  0  0  0
   20.8106   16.4023   22.8824 H   0  0  0  0  0  0  0  0  0  0  0  0
   20.4047   17.9157   21.3927 C   0  0  0  0  0  0  0  0  0  0  0  0
   21.4093   18.0991   20.9890 H   0  0  0  0  0  0  0  0  0  0  0  0
   19.9960   17.0812   20.8077 H   0  0  0  0  0  0  0  0  0  0  0  0
   19.4970   19.1518   21.1517 C   0  0  0  0  0  0  0  0  0  0  0  0
   18.4612   18.9164   21.4332 H   0  0  0  0  0  0  0  0  0  0  0  0
   19.4719   19.3342   20.0683 H   0  0  0  0  0  0  0  0  0  0  0  0
   19.9532   20.4595   21.8477 C   0  0  0  0  0  0  0  0  0  0  0  0
   21.0451   20.4713   21.9658 H   0  0  0  0  0  0  0  0  0  0  0  0
   19.7185   21.3070   21.1883 H   0  0  0  0  0  0  0  0  0  0  0  0
   19.2470   20.7051   23.2022 C   0  0  0  0  0  0  0  0  0  0  0  0
   19.6395   21.6098   23.6847 H   0  0  0  0  0  0  0  0  0  0  0  0
   18.1690   20.8512   23.0545 H   0  0  0  0  0  0  0  0  0  0  0  0
   19.3721   19.8688   23.8983 H   0  0  0  0  0  0  0  0  0  0  0  0
  1  2  1  0  0  0  0
  1  3  1  0  0  0  0
  1  4  1  0  0  0  0
  1  5  1  0  0  0  0
  5  6  1  0  0  0  0
  5  7  1  0  0  0  0
  5  8  1  0  0  0  0
  8  9  1  0  0  0  0
  8 10  1  0  0  0  0
  8 11  1  0  0  0  0
 11 12  1  0  0  0  0
 11 13  1  0  0  0  0
 11 14  1  0  0  0  0
 14 15  1  0  0  0  0
 14 16  1  0  0  0  0
 14 17  1  0  0  0  0
 17 18  1  0  0  0  0
 17 19  1  0  0  0  0
 17 20  1  0  0  0  0
M  END
> <VConfSearch Rank>
976

> <Conf_Id>
67

> <Delta U+W>
5.353

> <U+W>
-6.425

> <U>
51.541

> <W>
-57.966

> <W(PB)>
-59.821

> <W(SA)>
1.855

> <Valence>
5.347

> <Coulomb>
45.870

> <VdW>
0.325

> <VdW6>
-6.161

> <VdW12>
6.486

> <Bond>
0.201

> <Angle>
1.485

> <Pdih>
3.662

> <Idih>
0.000

> <Tether>
0.000

$$$$
VeraChem MOL file


 20 19  0  0  0  0  0  0  0  0999 V2000     
   21.1943   16.1373   21.9119 N   0  3  0  0  0  0  0  0  0  0  0  0
   20.2860   15.6630   21.9344 H   0  0  0  0  0  0  0  0  0  0  0  0
   21.7633   15.6562   21.2074 H   0  0  0  0  0  0  0  0  0  0  0  0
   21.6426   15.9728   22.8187 H   0  0  0  0  0  0  0  0  0  0  0  0
   21.0543   17.6155   21.6089 C   0  0  0  0  0  0  0  0  0  0  0  0
   20.5992   17.7157   20.6198 H   0  0  0  0  0  0  0  0  0  0  0  0
   22.0575   18.0487   21.5706 H   0  0  0  0  0  0  0  0  0  0  0  0
   20.2046   18.3683   22.6485 C   0  0  0  0  0  0  0  0  0  0  0  0
   19.2032   17.9198   22.6950 H   0  0  0  0  0  0  0  0  0  0  0  0
   20.6564   18.2516   23.6426 H   0  0  0  0  0  0  0  0  0  0  0  0
   20.0868   19.8695   22.3033 C   0  0  0  0  0  0  0  0  0  0  0  0
   19.6392   19.9823   21.3059 H   0  0  0  0  0  0  0  0  0  0  0  0
   21.0907   20.3138   22.2524 H   0  0  0  0  0  0  0  0  0  0  0  0
   19.2355   20.6356   23.3405 C   0  0  0  0  0  0  0  0  0  0  0  0
   18.2297   20.1956   23.3931 H   0  0  0  0  0  0  0  0  0  0  0  0
   19.6810   20.5272   24.3394 H   0  0  0  0  0  0  0  0  0  0  0  0
   19.1206   22.1349   22.9915 C   0  0  0  0  0  0  0  0  0  0  0  0
   18.6467   22.2772   22.0115 H   0  0  0  0  0  0  0  0  0  0  0  0
   18.5129   22.6615   23.7388 H   0  0  0  0  0  0  0  0  0  0  0  0
   20.1093   22.6114   22.9654 H   0  0  0  0  0  0  0  0  0  0  0  0
  1  2  1  0  0  0  0
  1  3  1  0  0  0  0
  1  4  1  0  0  0  0
  1  5  1  0  0  0  0
  5  6  1  0  0  0  0
  5  7  1  0  0  0  0
  5  8  1  0  0  0  0
  8  9  1  0  0  0  0
  8 10  1  0  0  0  0
  8 11  1  0  0  0  0
 11 12  1  0  0  0  0
 11 13  1  0  0  0  0
 11 14  1  0  0  0  0
 14 15  1  0  0  0  0
 14 16  1  0  0  0  0
 14 17  1  0  0  0  0
 17 18  1  0  0  0  0
 17 19  1  0  0  0  0
 17 20  1  0  0  0  0
M  END
> <VConfSearch Rank>
977

> <Conf_Id>
72

> <Delta U+W>
0.000

> <U+W>
-11.778

> <U>
45.772

> <W>
-57.550

> <W(PB)>
-59.511

> <W(SA)>
1.961

> <Valence>
1.299

> <Coulomb>
44.177

> <VdW>
0.297

> <VdW6>
-3.490

> <VdW12>
3.786

> <Bond>
0.096

> <Angle>
0.381

> <Pdih>
0.822

> <Idih>
0.000

> <Tether>
0.000

$$$$
VeraChem MOL file


 20 19  0  0  0  0  0  0  0  0999 V2000     
   18.3102   21.5155   21.8817 N   0  3  0  0  0  0  0  0  0  0  0  0
   18.6189   21.5319   20.9046 H   0  0  0  0  0  0  0  0  0  0  0  0
   17.4175   21.0127   21.9073 H   0  0  0  0  0  0  0  0  0  0  0  0
   18.1122   22.4861   22.1471 H   0  0  0  0  0  0  0  0  0  0  0  0
   19.3433   20.8826   22.7920 C   0  0  0  0  0  0  0  0  0  0  0  0
   18.9629   20.9269   23.8161 H   0  0  0  0  0  0  0  0  0  0  0  0
   20.2546   21.4843   22.7381 H   0  0  0  0  0  0  0  0  0  0  0  0
   19.6637   19.4234   22.4213 C   0  0  0  0  0  0  0  0  0  0  0  0
   18.7431   18.8263   22.4612 H   0  0  0  0  0  0  0  0  0  0  0  0
   20.0275   19.3889   21.3866 H   0  0  0  0  0  0  0  0  0  0  0  0
   20.7192   18.8177   23.3764 C   0  0  0  0  0  0  0  0  0  0  0  0
   20.3707   18.9307   24.4125 H   0  0  0  0  0  0  0  0  0  0  0  0
   21.6559   19.3875   23.3022 H   0  0  0  0  0  0  0  0  0  0  0  0
   21.0029   17.3187   23.1131 C   0  0  0  0  0  0  0  0  0  0  0  0
   21.6786   16.9451   23.8953 H   0  0  0  0  0  0  0  0  0  0  0  0
   20.0727   16.7416   23.2099 H   0  0  0  0  0  0  0  0  0  0  0  0
   21.6417   17.0472   21.7319 C   0  0  0  0  0  0  0  0  0  0  0  0
   22.5594   17.6345   21.5986 H   0  0  0  0  0  0  0  0  0  0  0  0
   21.9054   15.9863   21.6326 H   0  0  0  0  0  0  0  0  0  0  0  0
   20.9537   17.2931   20.9136 H   0  0  0  0  0  0  0  0  0  0  0  0
  1  2  1  0  0  0  0
  1  3  1  0  0  0  0
  1  4  1  0  0  0  0
  1  5  1  0  0  0  0
  5  6  1  0  0  0  0
  5  7  1  0  0  0  0
  5  8  1  0  0  0  0
  8  9  1  0  0  0  0
  8 10  1  0  0  0  0
  8 11  1  0  0  0  0
 11 12  1  0  0  0  0
 11 13  1  0  0  0  0
 11 14  1  0  0  0  0
 14 15  1  0  0  0  0
 14 16  1  0  0  0  0
 14 17  1  0  0  0  0
 17 18  1  0  0  0  0
 17 19  1  0  0  0  0
 17 20  1  0  0  0  0
M  END
> <VConfSearch Rank>
978

> <Conf_Id>
42

> <Delta U+W>
0.508

> <U+W>
-11.270

> <U>
46.486

> <W>
-57.756

> <W(PB)>
-59.705

> <W(SA)>
1.949

> <Valence>
1.806

> <Coulomb>
44.248

> <VdW>
0.433

> <VdW6>
-4.089

> <VdW12>
4.522

> <Bond>
0.131

> <Angle>
0.628

> <Pdih>
1.047

> <Idih>
0.000

> <Tether>
0.000

$$$$
VeraChem MOL file


 20 19  0  0  0  0  0  0  0  0999 V2000     
   23.0406   19.0526   21.6376 N   0  3  0  0  0  0  0  0  0  0  0  0
   23.0772   20.0104   21.2745 H   0  0  0  0  0  0  0  0  0  0  0  0
   23.3515   19.0882   22.6135 H   0  0  0  0  0  0  0  0  0  0  0  0
   23.7429   18.5122   21.1215 H   0  0  0  0  0  0  0  0  0  0  0  0
   21.6568   18.4491   21.5053 C   0  0  0  0  0  0  0  0  0  0  0  0
   21.6985   17.4234   21.8818 H   0  0  0  0  0  0  0  0  0  0  0  0
   21.4042   18.4144   20.4421 H   0  0  0  0  0  0  0  0  0  0  0  0
   20.5773   19.2372   22.2686 C   0  0  0  0  0  0  0  0  0  0  0  0
   20.8500   19.2808   23.3305 H   0  0  0  0  0  0  0  0  0  0  0  0
   20.5498   20.2706   21.8983 H   0  0  0  0  0  0  0  0  0  0  0  0
   19.1828   18.5878   22.1041 C   0  0  0  0  0  0  0  0  0  0  0  0
   19.1978   17.5694   22.5166 H   0  0  0  0  0  0  0  0  0  0  0  0
   18.9610   18.4833   21.0328 H   0  0  0  0  0  0  0  0  0  0  0  0
   18.0419   19.3979   22.7664 C   0  0  0  0  0  0  0  0  0  0  0  0
   18.0080   20.4100   22.3394 H   0  0  0  0  0  0  0  0  0  0  0  0
   17.0819   18.9262   22.5139 H   0  0  0  0  0  0  0  0  0  0  0  0
   18.1637   19.4866   24.3049 C   0  0  0  0  0  0  0  0  0  0  0  0
   19.0501   20.0578   24.6074 H   0  0  0  0  0  0  0  0  0  0  0  0
   17.2864   19.9901   24.7312 H   0  0  0  0  0  0  0  0  0  0  0  0
   18.2279   18.4873   24.7545 H   0  0  0  0  0  0  0  0  0  0  0  0
  1  2  1  0  0  0  0
  1  3  1  0  0  0  0
  1  4  1  0  0  0  0
  1  5  1  0  0  0  0
  5  6  1  0  0  0  0
  5  7  1  0  0  0  0
  5  8  1  0  0  0  0
  8  9  1  0  0  0  0
  8 10  1  0  0  0  0
  8 11  1  0  0  0  0
 11 12  1  0  0  0  0
 11 13  1  0  0  0  0
 11 14  1  0  0  0  0
 14 15  1  0  0  0  0
 14 16  1  0  0  0  0
 14 17  1  0  0  0  0
 17 18  1  0  0  0  0
 17 19  1  0  0  0  0
 17 20  1  0  0  0  0
M  END
> <VConfSearch Rank>
979

> <Conf_Id>
41

> <Delta U+W>
0.515

> <U+W>
-11.263

> <U>
46.486

> <W>
-57.749

> <W(PB)>
-59.685

> <W(SA)>
1.936

> <Valence>
1.806

> <Coulomb>
44.248

> <VdW>
0.433

> <VdW6>
-4.089

> <VdW12>
4.522

> <Bond>
0.131

> <Angle>
0.628

> <Pdih>
1.047

> <Idih>
0.000

> <Tether>
0.000

$$$$
VeraChem MOL file


 20 19  0  0  0  0  0  0  0  0999 V2000     
   21.6296   16.9399   21.6455 N   0  3  0  0  0  0  0  0  0  0  0  0
   21.7549   16.0967   21.0755 H   0  0  0  0  0  0  0  0  0  0  0  0
   22.0711   17.7116   21.1371 H   0  0  0  0  0  0  0  0  0  0  0  0
   22.1657   16.7989   22.5074 H   0  0  0  0  0  0  0  0  0  0  0  0
   20.1653   17.2144   21.9295 C   0  0  0  0  0  0  0  0  0  0  0  0
   19.7553   16.3337   22.4313 H   0  0  0  0  0  0  0  0  0  0  0  0
   19.6493   17.3312   20.9727 H   0  0  0  0  0  0  0  0  0  0  0  0
   19.9215   18.4591   22.8055 C   0  0  0  0  0  0  0  0  0  0  0  0
   18.8521   18.4986   23.0471 H   0  0  0  0  0  0  0  0  0  0  0  0
   20.4551   18.3466   23.7586 H   0  0  0  0  0  0  0  0  0  0  0  0
   20.3499   19.7749   22.1083 C   0  0  0  0  0  0  0  0  0  0  0  0
   19.7954   19.8920   21.1668 H   0  0  0  0  0  0  0  0  0  0  0  0
   21.4119   19.7153   21.8359 H   0  0  0  0  0  0  0  0  0  0  0  0
   20.1466   21.0329   22.9875 C   0  0  0  0  0  0  0  0  0  0  0  0
   20.7105   20.9266   23.9249 H   0  0  0  0  0  0  0  0  0  0  0  0
   20.5778   21.8996   22.4670 H   0  0  0  0  0  0  0  0  0  0  0  0
   18.6631   21.3313   23.3038 C   0  0  0  0  0  0  0  0  0  0  0  0
   18.2187   20.5499   23.9323 H   0  0  0  0  0  0  0  0  0  0  0  0
   18.5698   22.2815   23.8454 H   0  0  0  0  0  0  0  0  0  0  0  0
   18.0710   21.4112   22.3829 H   0  0  0  0  0  0  0  0  0  0  0  0
  1  2  1  0  0  0  0
  1  3  1  0  0  0  0
  1  4  1  0  0  0  0
  1  5  1  0  0  0  0
  5  6  1  0  0  0  0
  5  7  1  0  0  0  0
  5  8  1  0  0  0  0
  8  9  1  0  0  0  0
  8 10  1  0  0  0  0
  8 11  1  0  0  0  0
 11 12  1  0  0  0  0
 11 13  1  0  0  0  0
 11 14  1  0  0  0  0
 14 15  1  0  0  0  0
 14 16  1  0  0  0  0
 14 17  1  0  0  0  0
 17 18  1  0  0  0  0
 17 19  1  0  0  0  0
 17 20  1  0  0  0  0
M  END
> <VConfSearch Rank>
980

> <Conf_Id>
33

> <Delta U+W>
0.703

> <U+W>
-11.075

> <U>
47.080

> <W>
-58.154

> <W(PB)>
-60.053

> <W(SA)>
1.899

> <Valence>
1.943

> <Coulomb>
44.572

> <VdW>
0.565

> <VdW6>
-4.575

> <VdW12>
5.139

> <Bond>
0.158

> <Angle>
0.700

> <Pdih>
1.085

> <Idih>
0.000

> <Tether>
0.000

$$$$
VeraChem MOL file


 20 19  0  0  0  0  0  0  0  0999 V2000     
   19.7162   16.6625   23.6469 N   0  3  0  0  0  0  0  0  0  0  0  0
   19.6680   16.0530   24.4701 H   0  0  0  0  0  0  0  0  0  0  0  0
   19.0582   16.2848   22.9579 H   0  0  0  0  0  0  0  0  0  0  0  0
   20.6569   16.5602   23.2549 H   0  0  0  0  0  0  0  0  0  0  0  0
   19.4030   18.1049   23.9956 C   0  0  0  0  0  0  0  0  0  0  0  0
   20.1234   18.4370   24.7481 H   0  0  0  0  0  0  0  0  0  0  0  0
   18.4068   18.1270   24.4461 H   0  0  0  0  0  0  0  0  0  0  0  0
   19.4368   19.0613   22.7874 C   0  0  0  0  0  0  0  0  0  0  0  0
   18.7250   18.7154   22.0262 H   0  0  0  0  0  0  0  0  0  0  0  0
   19.0839   20.0441   23.1238 H   0  0  0  0  0  0  0  0  0  0  0  0
   20.8518   19.1961   22.1702 C   0  0  0  0  0  0  0  0  0  0  0  0
   21.2149   18.2047   21.8686 H   0  0  0  0  0  0  0  0  0  0  0  0
   21.5537   19.5640   22.9314 H   0  0  0  0  0  0  0  0  0  0  0  0
   20.8985   20.1248   20.9323 C   0  0  0  0  0  0  0  0  0  0  0  0
   21.9043   20.0743   20.4922 H   0  0  0  0  0  0  0  0  0  0  0  0
   20.2079   19.7532   20.1623 H   0  0  0  0  0  0  0  0  0  0  0  0
   20.5717   21.6007   21.2558 C   0  0  0  0  0  0  0  0  0  0  0  0
   21.2283   21.9869   22.0462 H   0  0  0  0  0  0  0  0  0  0  0  0
   20.7126   22.2288   20.3667 H   0  0  0  0  0  0  0  0  0  0  0  0
   19.5315   21.7222   21.5823 H   0  0  0  0  0  0  0  0  0  0  0  0
  1  2  1  0  0  0  0
  1  3  1  0  0  0  0
  1  4  1  0  0  0  0
  1  5  1  0  0  0  0
  5  6  1  0  0  0  0
  5  7  1  0  0  0  0
  5  8  1  0  0  0  0
  8  9  1  0  0  0  0
  8 10  1  0  0  0  0
  8 11  1  0  0  0  0
 11 12  1  0  0  0  0
 11 13  1  0  0  0  0
 11 14  1  0  0  0  0
 14 15  1  0  0  0  0
 14 16  1  0  0  0  0
 14 17  1  0  0  0  0
 17 18  1  0  0  0  0
 17 19  1  0  0  0  0
 17 20  1  0  0  0  0
M  END
> <VConfSearch Rank>
981

> <Conf_Id>
24

> <Delta U+W>
0.847

> <U+W>
-10.931

> <U>
47.080

> <W>
-58.011

> <W(PB)>
-59.914

> <W(SA)>
1.903

> <Valence>
1.943

> <Coulomb>
44.572

> <VdW>
0.565

> <VdW6>
-4.575

> <VdW12>
5.140

> <Bond>
0.158

> <Angle>
0.700

> <Pdih>
1.085

> <Idih>
0.000

> <Tether>
0.000

$$$$
VeraChem MOL file


 20 19  0  0  0  0  0  0  0  0999 V2000     
   20.7713   16.8937   21.1582 N   0  3  0  0  0  0  0  0  0  0  0  0
   21.6330   16.6958   20.6388 H   0  0  0  0  0  0  0  0  0  0  0  0
   20.8281   16.3716   22.0383 H   0  0  0  0  0  0  0  0  0  0  0  0
   19.9996   16.4902   20.6179 H   0  0  0  0  0  0  0  0  0  0  0  0
   20.5830   18.3790   21.3917 C   0  0  0  0  0  0  0  0  0  0  0  0
   20.5604   18.8742   20.4172 H   0  0  0  0  0  0  0  0  0  0  0  0
   21.4527   18.7451   21.9436 H   0  0  0  0  0  0  0  0  0  0  0  0
   19.2965   18.7109   22.1711 C   0  0  0  0  0  0  0  0  0  0  0  0
   18.4331   18.3027   21.6292 H   0  0  0  0  0  0  0  0  0  0  0  0
   19.3139   18.2069   23.1458 H   0  0  0  0  0  0  0  0  0  0  0  0
   19.0894   20.2338   22.3656 C   0  0  0  0  0  0  0  0  0  0  0  0
   18.1525   20.3986   22.9154 H   0  0  0  0  0  0  0  0  0  0  0  0
   18.9488   20.7030   21.3820 H   0  0  0  0  0  0  0  0  0  0  0  0
   20.2442   20.9587   23.1033 C   0  0  0  0  0  0  0  0  0  0  0  0
   21.1696   20.8954   22.5148 H   0  0  0  0  0  0  0  0  0  0  0  0
   20.0014   22.0287   23.1680 H   0  0  0  0  0  0  0  0  0  0  0  0
   20.4972   20.4188   24.5293 C   0  0  0  0  0  0  0  0  0  0  0  0
   21.2573   21.0238   25.0403 H   0  0  0  0  0  0  0  0  0  0  0  0
   19.5807   20.4521   25.1326 H   0  0  0  0  0  0  0  0  0  0  0  0
   20.8589   19.3832   24.5096 H   0  0  0  0  0  0  0  0  0  0  0  0
  1  2  1  0  0  0  0
  1  3  1  0  0  0  0
  1  4  1  0  0  0  0
  1  5  1  0  0  0  0
  5  6  1  0  0  0  0
  5  7  1  0  0  0  0
  5  8  1  0  0  0  0
  8  9  1  0  0  0  0
  8 10  1  0  0  0  0
  8 11  1  0  0  0  0
 11 12  1  0  0  0  0
 11 13  1  0  0  0  0
 11 14  1  0  0  0  0
 14 15  1  0  0  0  0
 14 16  1  0  0  0  0
 14 17  1  0  0  0  0
 17 18  1  0  0  0  0
 17 19  1  0  0  0  0
 17 20  1  0  0  0  0
M  END
> <VConfSearch Rank>
982

> <Conf_Id>
64

> <Delta U+W>
0.707

> <U+W>
-11.070

> <U>
47.077

> <W>
-58.148

> <W(PB)>
-60.054

> <W(SA)>
1.906

> <Valence>
2.039

> <Coulomb>
44.655

> <VdW>
0.383

> <VdW6>
-4.912

> <VdW12>
5.295

> <Bond>
0.159

> <Angle>
0.856

> <Pdih>
1.024

> <Idih>
0.000

> <Tether>
0.000

$$$$
VeraChem MOL file


 20 19  0  0  0  0  0  0  0  0999 V2000     
   21.0173   21.5781   23.2305 N   0  3  0  0  0  0  0  0  0  0  0  0
   21.8257   21.5923   23.8602 H   0  0  0  0  0  0  0  0  0  0  0  0
   21.3671   21.7707   22.2867 H   0  0  0  0  0  0  0  0  0  0  0  0
   20.4213   22.3697   23.4943 H   0  0  0  0  0  0  0  0  0  0  0  0
   20.2690   20.2622   23.2998 C   0  0  0  0  0  0  0  0  0  0  0  0
   19.4078   20.3299   22.6299 H   0  0  0  0  0  0  0  0  0  0  0  0
   19.9009   20.1359   24.3215 H   0  0  0  0  0  0  0  0  0  0  0  0
   21.1367   19.0511   22.9086 C   0  0  0  0  0  0  0  0  0  0  0  0
   21.5142   19.1812   21.8863 H   0  0  0  0  0  0  0  0  0  0  0  0
   22.0197   19.0167   23.5604 H   0  0  0  0  0  0  0  0  0  0  0  0
   20.3767   17.7062   23.0257 C   0  0  0  0  0  0  0  0  0  0  0  0
   20.1165   17.5344   24.0794 H   0  0  0  0  0  0  0  0  0  0  0  0
   21.0546   16.8884   22.7449 H   0  0  0  0  0  0  0  0  0  0  0  0
   19.0866   17.6111   22.1716 C   0  0  0  0  0  0  0  0  0  0  0  0
   18.6230   16.6299   22.3455 H   0  0  0  0  0  0  0  0  0  0  0  0
   18.3520   18.3548   22.5093 H   0  0  0  0  0  0  0  0  0  0  0  0
   19.3389   17.7807   20.6561 C   0  0  0  0  0  0  0  0  0  0  0  0
   20.0862   17.0611   20.2973 H   0  0  0  0  0  0  0  0  0  0  0  0
   18.4130   17.6127   20.0910 H   0  0  0  0  0  0  0  0  0  0  0  0
   19.6919   18.7916   20.4173 H   0  0  0  0  0  0  0  0  0  0  0  0
  1  2  1  0  0  0  0
  1  3  1  0  0  0  0
  1  4  1  0  0  0  0
  1  5  1  0  0  0  0
  5  6  1  0  0  0  0
  5  7  1  0  0  0  0
  5  8  1  0  0  0  0
  8  9  1  0  0  0  0
  8 10  1  0  0  0  0
  8 11  1  0  0  0  0
 11 12  1  0  0  0  0
 11 13  1  0  0  0  0
 11 14  1  0  0  0  0
 14 15  1  0  0  0  0
 14 16  1  0  0  0  0
 14 17  1  0  0  0  0
 17 18  1  0  0  0  0
 17 19  1  0  0  0  0
 17 20  1  0  0  0  0
M  END
> <VConfSearch Rank>
983

> <Conf_Id>
22

> <Delta U+W>
0.731

> <U+W>
-11.047

> <U>
47.078

> <W>
-58.125

> <W(PB)>
-60.031

> <W(SA)>
1.906

> <Valence>
2.039

> <Coulomb>
44.655

> <VdW>
0.383

> <VdW6>
-4.913

> <VdW12>
5.296

> <Bond>
0.159

> <Angle>
0.856

> <Pdih>
1.024

> <Idih>
0.000

> <Tether>
0.000

$$$$
VeraChem MOL file


 20 19  0  0  0  0  0  0  0  0999 V2000     
   22.1258   17.7147   23.7293 N   0  3  0  0  0  0  0  0  0  0  0  0
   22.3916   18.3198   24.5126 H   0  0  0  0  0  0  0  0  0  0  0  0
   21.7691   16.8418   24.1307 H   0  0  0  0  0  0  0  0  0  0  0  0
   22.9892   17.4803   23.2282 H   0  0  0  0  0  0  0  0  0  0  0  0
   21.1094   18.3773   22.8212 C   0  0  0  0  0  0  0  0  0  0  0  0
   20.8934   17.6914   21.9977 H   0  0  0  0  0  0  0  0  0  0  0  0
   21.5696   19.2792   22.4110 H   0  0  0  0  0  0  0  0  0  0  0  0
   19.8027   18.7472   23.5453 C   0  0  0  0  0  0  0  0  0  0  0  0
   19.4155   17.8538   24.0531 H   0  0  0  0  0  0  0  0  0  0  0  0
   20.0164   19.4827   24.3322 H   0  0  0  0  0  0  0  0  0  0  0  0
   18.6979   19.2955   22.6069 C   0  0  0  0  0  0  0  0  0  0  0  0
   17.7915   19.4367   23.2119 H   0  0  0  0  0  0  0  0  0  0  0  0
   18.4353   18.5429   21.8506 H   0  0  0  0  0  0  0  0  0  0  0  0
   19.0328   20.6469   21.9236 C   0  0  0  0  0  0  0  0  0  0  0  0
   18.0900   21.1769   21.7276 H   0  0  0  0  0  0  0  0  0  0  0  0
   19.6031   21.2896   22.6088 H   0  0  0  0  0  0  0  0  0  0  0  0
   19.7809   20.5005   20.5776 C   0  0  0  0  0  0  0  0  0  0  0  0
   20.7761   20.0607   20.7007 H   0  0  0  0  0  0  0  0  0  0  0  0
   19.2144   19.8716   19.8786 H   0  0  0  0  0  0  0  0  0  0  0  0
   19.9139   21.4830   20.1063 H   0  0  0  0  0  0  0  0  0  0  0  0
  1  2  1  0  0  0  0
  1  3  1  0  0  0  0
  1  4  1  0  0  0  0
  1  5  1  0  0  0  0
  5  6  1  0  0  0  0
  5  7  1  0  0  0  0
  5  8  1  0  0  0  0
  8  9  1  0  0  0  0
  8 10  1  0  0  0  0
  8 11  1  0  0  0  0
 11 12  1  0  0  0  0
 11 13  1  0  0  0  0
 11 14  1  0  0  0  0
 14 15  1  0  0  0  0
 14 16  1  0  0  0  0
 14 17  1  0  0  0  0
 17 18  1  0  0  0  0
 17 19  1  0  0  0  0
 17 20  1  0  0  0  0
M  END
> <VConfSearch Rank>
984

> <Conf_Id>
61

> <Delta U+W>
2.669

> <U+W>
-9.108

> <U>
48.916

> <W>
-58.025

> <W(PB)>
-59.935

> <W(SA)>
1.911

> <Valence>
3.785

> <Coulomb>
44.716

> <VdW>
0.415

> <VdW6>
-4.836

> <VdW12>
5.251

> <Bond>
0.175

> <Angle>
1.195

> <Pdih>
2.415

> <Idih>
0.000

> <Tether>
0.000

$$$$
VeraChem MOL file


 20 19  0  0  0  0  0  0  0  0999 V2000     
   22.1378   19.0066   21.3043 N   0  3  0  0  0  0  0  0  0  0  0  0
   22.9080   19.5789   20.9426 H   0  0  0  0  0  0  0  0  0  0  0  0
   22.3031   18.0483   20.9808 H   0  0  0  0  0  0  0  0  0  0  0  0
   21.2810   19.3348   20.8512 H   0  0  0  0  0  0  0  0  0  0  0  0
   22.0442   19.0816   22.8163 C   0  0  0  0  0  0  0  0  0  0  0  0
   21.9265   20.1290   23.1069 H   0  0  0  0  0  0  0  0  0  0  0  0
   22.9997   18.7266   23.2120 H   0  0  0  0  0  0  0  0  0  0  0  0
   20.9053   18.2375   23.4261 C   0  0  0  0  0  0  0  0  0  0  0  0
   20.8557   17.2585   22.9312 H   0  0  0  0  0  0  0  0  0  0  0  0
   21.1659   18.0323   24.4729 H   0  0  0  0  0  0  0  0  0  0  0  0
   19.5146   18.9228   23.4090 C   0  0  0  0  0  0  0  0  0  0  0  0
   19.5680   19.8730   23.9583 H   0  0  0  0  0  0  0  0  0  0  0  0
   18.8135   18.2868   23.9670 H   0  0  0  0  0  0  0  0  0  0  0  0
   18.9416   19.1761   21.9949 C   0  0  0  0  0  0  0  0  0  0  0  0
   19.5470   19.9277   21.4729 H   0  0  0  0  0  0  0  0  0  0  0  0
   18.9852   18.2512   21.4027 H   0  0  0  0  0  0  0  0  0  0  0  0
   17.4821   19.6754   22.0540 C   0  0  0  0  0  0  0  0  0  0  0  0
   17.0939   19.8594   21.0438 H   0  0  0  0  0  0  0  0  0  0  0  0
   16.8297   18.9348   22.5348 H   0  0  0  0  0  0  0  0  0  0  0  0
   17.4085   20.6137   22.6191 H   0  0  0  0  0  0  0  0  0  0  0  0
  1  2  1  0  0  0  0
  1  3  1  0  0  0  0
  1  4  1  0  0  0  0
  1  5  1  0  0  0  0
  5  6  1  0  0  0  0
  5  7  1  0  0  0  0
  5  8  1  0  0  0  0
  8  9  1  0  0  0  0
  8 10  1  0  0  0  0
  8 11  1  0  0  0  0
 11 12  1  0  0  0  0
 11 13  1  0  0  0  0
 11 14  1  0  0  0  0
 14 15  1  0  0  0  0
 14 16  1  0  0  0  0
 14 17  1  0  0  0  0
 17 18  1  0  0  0  0
 17 19  1  0  0  0  0
 17 20  1  0  0  0  0
M  END
> <VConfSearch Rank>
985

> <Conf_Id>
69

> <Delta U+W>
2.811

> <U+W>
-8.967

> <U>
49.216

> <W>
-58.183

> <W(PB)>
-60.064

> <W(SA)>
1.881

> <Valence>
2.929

> <Coulomb>
46.006

> <VdW>
0.281

> <VdW6>
-4.909

> <VdW12>
5.190

> <Bond>
0.156

> <Angle>
0.974

> <Pdih>
1.799

> <Idih>
0.000

> <Tether>
0.000

$$$$
VeraChem MOL file


 20 19  0  0  0  0  0  0  0  0999 V2000     
   21.7850   20.1513   23.6046 N   0  3  0  0  0  0  0  0  0  0  0  0
   21.4068   20.5821   22.7570 H   0  0  0  0  0  0  0  0  0  0  0  0
   21.3766   20.6464   24.4037 H   0  0  0  0  0  0  0  0  0  0  0  0
   22.7917   20.3459   23.6180 H   0  0  0  0  0  0  0  0  0  0  0  0
   21.4998   18.6626   23.6598 C   0  0  0  0  0  0  0  0  0  0  0  0
   21.9471   18.2872   24.5842 H   0  0  0  0  0  0  0  0  0  0  0  0
   22.0054   18.1793   22.8195 H   0  0  0  0  0  0  0  0  0  0  0  0
   19.9996   18.3011   23.6468 C   0  0  0  0  0  0  0  0  0  0  0  0
   19.8936   17.3013   24.0884 H   0  0  0  0  0  0  0  0  0  0  0  0
   19.4428   18.9810   24.3052 H   0  0  0  0  0  0  0  0  0  0  0  0
   19.3566   18.2673   22.2364 C   0  0  0  0  0  0  0  0  0  0  0  0
   18.3300   17.8891   22.3380 H   0  0  0  0  0  0  0  0  0  0  0  0
   19.8893   17.5396   21.6086 H   0  0  0  0  0  0  0  0  0  0  0  0
   19.3154   19.6361   21.5174 C   0  0  0  0  0  0  0  0  0  0  0  0
   18.8802   20.3950   22.1827 H   0  0  0  0  0  0  0  0  0  0  0  0
   20.3336   19.9623   21.2708 H   0  0  0  0  0  0  0  0  0  0  0  0
   18.4918   19.5686   20.2134 C   0  0  0  0  0  0  0  0  0  0  0  0
   17.4514   19.2834   20.4168 H   0  0  0  0  0  0  0  0  0  0  0  0
   18.4805   20.5444   19.7108 H   0  0  0  0  0  0  0  0  0  0  0  0
   18.9169   18.8354   19.5155 H   0  0  0  0  0  0  0  0  0  0  0  0
  1  2  1  0  0  0  0
  1  3  1  0  0  0  0
  1  4  1  0  0  0  0
  1  5  1  0  0  0  0
  5  6  1  0  0  0  0
  5  7  1  0  0  0  0
  5  8  1  0  0  0  0
  8  9  1  0  0  0  0
  8 10  1  0  0  0  0
  8 11  1  0  0  0  0
 11 12  1  0  0  0  0
 11 13  1  0  0  0  0
 11 14  1  0  0  0  0
 14 15  1  0  0  0  0
 14 16  1  0  0  0  0
 14 17  1  0  0  0  0
 17 18  1  0  0  0  0
 17 19  1  0  0  0  0
 17 20  1  0  0  0  0
M  END
> <VConfSearch Rank>
986

> <Conf_Id>
26

> <Delta U+W>
2.809

> <U+W>
-8.969

> <U>
49.216

> <W>
-58.185

> <W(PB)>
-60.088

> <W(SA)>
1.903

> <Valence>
2.929

> <Coulomb>
46.006

> <VdW>
0.281

> <VdW6>
-4.909

> <VdW12>
5.190

> <Bond>
0.156

> <Angle>
0.974

> <Pdih>
1.799

> <Idih>
0.000

> <Tether>
0.000

$$$$
VeraChem MOL file


 20 19  0  0  0  0  0  0  0  0999 V2000     
   21.8299   20.7789   21.8393 N   0  3  0  0  0  0  0  0  0  0  0  0
   22.3150   19.9410   22.1731 H   0  0  0  0  0  0  0  0  0  0  0  0
   22.0411   20.8736   20.8411 H   0  0  0  0  0  0  0  0  0  0  0  0
   22.2571   21.5821   22.3122 H   0  0  0  0  0  0  0  0  0  0  0  0
   20.3373   20.7024   22.0950 C   0  0  0  0  0  0  0  0  0  0  0  0
   19.8911   21.6369   21.7442 H   0  0  0  0  0  0  0  0  0  0  0  0
   20.1804   20.6362   23.1748 H   0  0  0  0  0  0  0  0  0  0  0  0
   19.6491   19.5126   21.3958 C   0  0  0  0  0  0  0  0  0  0  0  0
   18.5674   19.5775   21.5698 H   0  0  0  0  0  0  0  0  0  0  0  0
   19.7838   19.6070   20.3102 H   0  0  0  0  0  0  0  0  0  0  0  0
   20.1682   18.1248   21.8557 C   0  0  0  0  0  0  0  0  0  0  0  0
   21.2105   18.0012   21.5326 H   0  0  0  0  0  0  0  0  0  0  0  0
   19.6005   17.3436   21.3316 H   0  0  0  0  0  0  0  0  0  0  0  0
   20.0826   17.8719   23.3828 C   0  0  0  0  0  0  0  0  0  0  0  0
   20.4939   16.8755   23.5968 H   0  0  0  0  0  0  0  0  0  0  0  0
   20.7214   18.5839   23.9227 H   0  0  0  0  0  0  0  0  0  0  0  0
   18.6414   17.9446   23.9364 C   0  0  0  0  0  0  0  0  0  0  0  0
   17.9776   17.2531   23.4014 H   0  0  0  0  0  0  0  0  0  0  0  0
   18.6236   17.6718   24.9995 H   0  0  0  0  0  0  0  0  0  0  0  0
   18.2268   18.9566   23.8485 H   0  0  0  0  0  0  0  0  0  0  0  0
  1  2  1  0  0  0  0
  1  3  1  0  0  0  0
  1  4  1  0  0  0  0
  1  5  1  0  0  0  0
  5  6  1  0  0  0  0
  5  7  1  0  0  0  0
  5  8  1  0  0  0  0
  8  9  1  0  0  0  0
  8 10  1  0  0  0  0
  8 11  1  0  0  0  0
 11 12  1  0  0  0  0
 11 13  1  0  0  0  0
 11 14  1  0  0  0  0
 14 15  1  0  0  0  0
 14 16  1  0  0  0  0
 14 17  1  0  0  0  0
 17 18  1  0  0  0  0
 17 19  1  0  0  0  0
 17 20  1  0  0  0  0
M  END
> <VConfSearch Rank>
987

> <Conf_Id>
2

> <Delta U+W>
0.994

> <U+W>
-10.784

> <U>
47.562

> <W>
-58.346

> <W(PB)>
-60.221

> <W(SA)>
1.875

> <Valence>
2.149

> <Coulomb>
45.034

> <VdW>
0.378

> <VdW6>
-5.599

> <VdW12>
5.977

> <Bond>
0.185

> <Angle>
0.935

> <Pdih>
1.028

> <Idih>
0.000

> <Tether>
0.000

$$$$
VeraChem MOL file


 20 19  0  0  0  0  0  0  0  0999 V2000     
   19.6034   21.0597   21.1898 N   0  3  0  0  0  0  0  0  0  0  0  0
   18.6092   21.2326   21.0121 H   0  0  0  0  0  0  0  0  0  0  0  0
   19.7969   21.3642   22.1484 H   0  0  0  0  0  0  0  0  0  0  0  0
   20.1304   21.6792   20.5654 H   0  0  0  0  0  0  0  0  0  0  0  0
   19.9689   19.6033   20.9793 C   0  0  0  0  0  0  0  0  0  0  0  0
   21.0427   19.4939   21.1517 H   0  0  0  0  0  0  0  0  0  0  0  0
   19.7667   19.3571   19.9333 H   0  0  0  0  0  0  0  0  0  0  0  0
   19.1942   18.6318   21.8927 C   0  0  0  0  0  0  0  0  0  0  0  0
   18.1196   18.7254   21.6874 H   0  0  0  0  0  0  0  0  0  0  0  0
   19.4618   17.6024   21.6221 H   0  0  0  0  0  0  0  0  0  0  0  0
   19.4458   18.8542   23.4073 C   0  0  0  0  0  0  0  0  0  0  0  0
   18.8824   18.1000   23.9738 H   0  0  0  0  0  0  0  0  0  0  0  0
   19.0267   19.8242   23.7068 H   0  0  0  0  0  0  0  0  0  0  0  0
   20.9349   18.7974   23.8344 C   0  0  0  0  0  0  0  0  0  0  0  0
   21.5001   19.6066   23.3522 H   0  0  0  0  0  0  0  0  0  0  0  0
   20.9974   18.9883   24.9149 H   0  0  0  0  0  0  0  0  0  0  0  0
   21.6089   17.4404   23.5291 C   0  0  0  0  0  0  0  0  0  0  0  0
   21.6734   17.2566   22.4494 H   0  0  0  0  0  0  0  0  0  0  0  0
   22.6309   17.4201   23.9289 H   0  0  0  0  0  0  0  0  0  0  0  0
   21.0531   16.6118   23.9867 H   0  0  0  0  0  0  0  0  0  0  0  0
  1  2  1  0  0  0  0
  1  3  1  0  0  0  0
  1  4  1  0  0  0  0
  1  5  1  0  0  0  0
  5  6  1  0  0  0  0
  5  7  1  0  0  0  0
  5  8  1  0  0  0  0
  8  9  1  0  0  0  0
  8 10  1  0  0  0  0
  8 11  1  0  0  0  0
 11 12  1  0  0  0  0
 11 13  1  0  0  0  0
 11 14  1  0  0  0  0
 14 15  1  0  0  0  0
 14 16  1  0  0  0  0
 14 17  1  0  0  0  0
 17 18  1  0  0  0  0
 17 19  1  0  0  0  0
 17 20  1  0  0  0  0
M  END
> <VConfSearch Rank>
988

> <Conf_Id>
1

> <Delta U+W>
1.032

> <U+W>
-10.746

> <U>
47.562

> <W>
-58.308

> <W(PB)>
-60.184

> <W(SA)>
1.877

> <Valence>
2.149

> <Coulomb>
45.035

> <VdW>
0.378

> <VdW6>
-5.599

> <VdW12>
5.978

> <Bond>
0.185

> <Angle>
0.935

> <Pdih>
1.028

> <Idih>
0.000

> <Tether>
0.000

$$$$
VeraChem MOL file


 20 19  0  0  0  0  0  0  0  0999 V2000     
   20.7965   20.1212   24.5185 N   0  3  0  0  0  0  0  0  0  0  0  0
   20.1426   20.7916   24.9347 H   0  0  0  0  0  0  0  0  0  0  0  0
   20.4352   19.1835   24.7155 H   0  0  0  0  0  0  0  0  0  0  0  0
   21.6820   20.2137   25.0270 H   0  0  0  0  0  0  0  0  0  0  0  0
   20.9744   20.3556   23.0308 C   0  0  0  0  0  0  0  0  0  0  0  0
   21.7022   19.6316   22.6612 H   0  0  0  0  0  0  0  0  0  0  0  0
   21.4004   21.3546   22.9045 H   0  0  0  0  0  0  0  0  0  0  0  0
   19.6626   20.2592   22.2231 C   0  0  0  0  0  0  0  0  0  0  0  0
   18.9565   20.9943   22.6316 H   0  0  0  0  0  0  0  0  0  0  0  0
   19.8506   20.5676   21.1862 H   0  0  0  0  0  0  0  0  0  0  0  0
   18.9928   18.8586   22.2363 C   0  0  0  0  0  0  0  0  0  0  0  0
   17.9244   18.9947   22.0187 H   0  0  0  0  0  0  0  0  0  0  0  0
   19.0324   18.4198   23.2416 H   0  0  0  0  0  0  0  0  0  0  0  0
   19.5524   17.8533   21.1970 C   0  0  0  0  0  0  0  0  0  0  0  0
   18.9428   16.9397   21.2388 H   0  0  0  0  0  0  0  0  0  0  0  0
   19.4226   18.2573   20.1833 H   0  0  0  0  0  0  0  0  0  0  0  0
   21.0323   17.4652   21.4096 C   0  0  0  0  0  0  0  0  0  0  0  0
   21.2209   17.1646   22.4483 H   0  0  0  0  0  0  0  0  0  0  0  0
   21.3024   16.6208   20.7623 H   0  0  0  0  0  0  0  0  0  0  0  0
   21.7033   18.2941   21.1551 H   0  0  0  0  0  0  0  0  0  0  0  0
  1  2  1  0  0  0  0
  1  3  1  0  0  0  0
  1  4  1  0  0  0  0
  1  5  1  0  0  0  0
  5  6  1  0  0  0  0
  5  7  1  0  0  0  0
  5  8  1  0  0  0  0
  8  9  1  0  0  0  0
  8 10  1  0  0  0  0
  8 11  1  0  0  0  0
 11 12  1  0  0  0  0
 11 13  1  0  0  0  0
 11 14  1  0  0  0  0
 14 15  1  0  0  0  0
 14 16  1  0  0  0  0
 14 17  1  0  0  0  0
 17 18  1  0  0  0  0
 17 19  1  0  0  0  0
 17 20  1  0  0  0  0
M  END
> <VConfSearch Rank>
989

> <Conf_Id>
80

> <Delta U+W>
2.920

> <U+W>
-8.857

> <U>
49.434

> <W>
-58.292

> <W(PB)>
-60.170

> <W(SA)>
1.879

> <Valence>
3.798

> <Coulomb>
45.253

> <VdW>
0.384

> <VdW6>
-5.595

> <VdW12>
5.979

> <Bond>
0.198

> <Angle>
1.368

> <Pdih>
2.231

> <Idih>
0.000

> <Tether>
0.000

$$$$
VeraChem MOL file


 20 19  0  0  0  0  0  0  0  0999 V2000     
   19.2223   18.1274   24.3159 N   0  3  0  0  0  0  0  0  0  0  0  0
   18.7380   17.2369   24.1654 H   0  0  0  0  0  0  0  0  0  0  0  0
   19.3412   18.2344   25.3287 H   0  0  0  0  0  0  0  0  0  0  0  0
   18.5897   18.8718   24.0088 H   0  0  0  0  0  0  0  0  0  0  0  0
   20.5499   18.1785   23.5846 C   0  0  0  0  0  0  0  0  0  0  0  0
   21.1813   17.3855   23.9946 H   0  0  0  0  0  0  0  0  0  0  0  0
   21.0226   19.1351   23.8125 H   0  0  0  0  0  0  0  0  0  0  0  0
   20.4283   17.9895   22.0575 C   0  0  0  0  0  0  0  0  0  0  0  0
   21.4321   17.9082   21.6201 H   0  0  0  0  0  0  0  0  0  0  0  0
   19.9407   17.0232   21.8718 H   0  0  0  0  0  0  0  0  0  0  0  0
   19.6306   19.1028   21.3264 C   0  0  0  0  0  0  0  0  0  0  0  0
   18.7376   19.3805   21.9009 H   0  0  0  0  0  0  0  0  0  0  0  0
   19.2528   18.6824   20.3841 H   0  0  0  0  0  0  0  0  0  0  0  0
   20.4482   20.3717   20.9721 C   0  0  0  0  0  0  0  0  0  0  0  0
   21.2878   20.1008   20.3167 H   0  0  0  0  0  0  0  0  0  0  0  0
   19.8069   21.0406   20.3810 H   0  0  0  0  0  0  0  0  0  0  0  0
   20.9810   21.1551   22.1921 C   0  0  0  0  0  0  0  0  0  0  0  0
   21.7967   20.6158   22.6880 H   0  0  0  0  0  0  0  0  0  0  0  0
   21.3817   22.1271   21.8763 H   0  0  0  0  0  0  0  0  0  0  0  0
   20.1853   21.3428   22.9244 H   0  0  0  0  0  0  0  0  0  0  0  0
  1  2  1  0  0  0  0
  1  3  1  0  0  0  0
  1  4  1  0  0  0  0
  1  5  1  0  0  0  0
  5  6  1  0  0  0  0
  5  7  1  0  0  0  0
  5  8  1  0  0  0  0
  8  9  1  0  0  0  0
  8 10  1  0  0  0  0
  8 11  1  0  0  0  0
 11 12  1  0  0  0  0
 11 13  1  0  0  0  0
 11 14  1  0  0  0  0
 14 15  1  0  0  0  0
 14 16  1  0  0  0  0
 14 17  1  0  0  0  0
 17 18  1  0  0  0  0
 17 19  1  0  0  0  0
 17 20  1  0  0  0  0
M  END
> <VConfSearch Rank>
990

> <Conf_Id>
65

> <Delta U+W>
2.949

> <U+W>
-8.829

> <U>
49.435

> <W>
-58.263

> <W(PB)>
-60.125

> <W(SA)>
1.862

> <Valence>
3.797

> <Coulomb>
45.253

> <VdW>
0.384

> <VdW6>
-5.596

> <VdW12>
5.980

> <Bond>
0.198

> <Angle>
1.369

> <Pdih>
2.230

> <Idih>
0.000

> <Tether>
0.000

$$$$
VeraChem MOL file


 20 19  0  0  0  0  0  0  0  0999 V2000     
   19.6813   20.6544   21.1577 N   0  3  0  0  0  0  0  0  0  0  0  0
   19.0230   21.4368   21.0787 H   0  0  0  0  0  0  0  0  0  0  0  0
   20.2667   20.8290   21.9802 H   0  0  0  0  0  0  0  0  0  0  0  0
   20.2914   20.6941   20.3351 H   0  0  0  0  0  0  0  0  0  0  0  0
   18.9638   19.3225   21.2622 C   0  0  0  0  0  0  0  0  0  0  0  0
   18.3665   19.2094   20.3534 H   0  0  0  0  0  0  0  0  0  0  0  0
   18.2806   19.3581   22.1149 H   0  0  0  0  0  0  0  0  0  0  0  0
   19.9084   18.1110   21.3978 C   0  0  0  0  0  0  0  0  0  0  0  0
   19.3630   17.2226   21.0527 H   0  0  0  0  0  0  0  0  0  0  0  0
   20.7587   18.2239   20.7122 H   0  0  0  0  0  0  0  0  0  0  0  0
   20.4153   17.8255   22.8370 C   0  0  0  0  0  0  0  0  0  0  0  0
   21.0263   16.9131   22.7948 H   0  0  0  0  0  0  0  0  0  0  0  0
   19.5671   17.5800   23.4910 H   0  0  0  0  0  0  0  0  0  0  0  0
   21.2725   18.9475   23.4764 C   0  0  0  0  0  0  0  0  0  0  0  0
   22.0523   18.4822   24.0957 H   0  0  0  0  0  0  0  0  0  0  0  0
   21.8089   19.5107   22.7009 H   0  0  0  0  0  0  0  0  0  0  0  0
   20.4531   19.8965   24.3829 C   0  0  0  0  0  0  0  0  0  0  0  0
   19.6061   20.3508   23.8576 H   0  0  0  0  0  0  0  0  0  0  0  0
   20.0501   19.3523   25.2470 H   0  0  0  0  0  0  0  0  0  0  0  0
   21.0866   20.7058   24.7688 H   0  0  0  0  0  0  0  0  0  0  0  0
  1  2  1  0  0  0  0
  1  3  1  0  0  0  0
  1  4  1  0  0  0  0
  1  5  1  0  0  0  0
  5  6  1  0  0  0  0
  5  7  1  0  0  0  0
  5  8  1  0  0  0  0
  8  9  1  0  0  0  0
  8 10  1  0  0  0  0
  8 11  1  0  0  0  0
 11 12  1  0  0  0  0
 11 13  1  0  0  0  0
 11 14  1  0  0  0  0
 14 15  1  0  0  0  0
 14 16  1  0  0  0  0
 14 17  1  0  0  0  0
 17 18  1  0  0  0  0
 17 19  1  0  0  0  0
 17 20  1  0  0  0  0
M  END
> <VConfSearch Rank>
991

> <Conf_Id>
77

> <Delta U+W>
5.366

> <U+W>
-6.412

> <U>
51.542

> <W>
-57.954

> <W(PB)>
-59.811

> <W(SA)>
1.857

> <Valence>
5.347

> <Coulomb>
45.870

> <VdW>
0.325

> <VdW6>
-6.161

> <VdW12>
6.486

> <Bond>
0.201

> <Angle>
1.484

> <Pdih>
3.662

> <Idih>
0.000

> <Tether>
0.000

$$$$
VeraChem MOL file


 20 19  0  0  0  0  0  0  0  0999 V2000     
   22.0468   19.4843   22.9991 N   0  3  0  0  0  0  0  0  0  0  0  0
   22.1526   20.3876   23.4715 H   0  0  0  0  0  0  0  0  0  0  0  0
   21.4356   18.9048   23.5825 H   0  0  0  0  0  0  0  0  0  0  0  0
   22.9719   19.0418   22.9910 H   0  0  0  0  0  0  0  0  0  0  0  0
   21.4861   19.6439   21.5992 C   0  0  0  0  0  0  0  0  0  0  0  0
   21.4558   18.6620   21.1194 H   0  0  0  0  0  0  0  0  0  0  0  0
   22.1882   20.2714   21.0435 H   0  0  0  0  0  0  0  0  0  0  0  0
   20.0875   20.2923   21.5545 C   0  0  0  0  0  0  0  0  0  0  0  0
   20.0437   21.1309   22.2620 H   0  0  0  0  0  0  0  0  0  0  0  0
   19.9570   20.7355   20.5583 H   0  0  0  0  0  0  0  0  0  0  0  0
   18.9007   19.3222   21.7999 C   0  0  0  0  0  0  0  0  0  0  0  0
   18.8696   18.5607   21.0083 H   0  0  0  0  0  0  0  0  0  0  0  0
   17.9741   19.9017   21.6855 H   0  0  0  0  0  0  0  0  0  0  0  0
   18.8724   18.6429   23.1928 C   0  0  0  0  0  0  0  0  0  0  0  0
   19.3479   19.2872   23.9445 H   0  0  0  0  0  0  0  0  0  0  0  0
   17.8253   18.5411   23.5113 H   0  0  0  0  0  0  0  0  0  0  0  0
   19.5056   17.2312   23.1934 C   0  0  0  0  0  0  0  0  0  0  0  0
   19.5144   16.8115   24.2078 H   0  0  0  0  0  0  0  0  0  0  0  0
   18.9261   16.5481   22.5587 H   0  0  0  0  0  0  0  0  0  0  0  0
   20.5348   17.2328   22.8188 H   0  0  0  0  0  0  0  0  0  0  0  0
  1  2  1  0  0  0  0
  1  3  1  0  0  0  0
  1  4  1  0  0  0  0
  1  5  1  0  0  0  0
  5  6  1  0  0  0  0
  5  7  1  0  0  0  0
  5  8  1  0  0  0  0
  8  9  1  0  0  0  0
  8 10  1  0  0  0  0
  8 11  1  0  0  0  0
 11 12  1  0  0  0  0
 11 13  1  0  0  0  0
 11 14  1  0  0  0  0
 14 15  1  0  0  0  0
 14 16  1  0  0  0  0
 14 17  1  0  0  0  0
 17 18  1  0  0  0  0
 17 19  1  0  0  0  0
 17 20  1  0  0  0  0
M  END
> <VConfSearch Rank>
992

> <Conf_Id>
67

> <Delta U+W>
5.353

> <U+W>
-6.425

> <U>
51.541

> <W>
-57.966

> <W(PB)>
-59.821

> <W(SA)>
1.855

> <Valence>
5.347

> <Coulomb>
45.870

> <VdW>
0.325

> <VdW6>
-6.161

> <VdW12>
6.486

> <Bond>
0.201

> <Angle>
1.485

> <Pdih>
3.662

> <Idih>
0.000

> <Tether>
0.000

$$$$
