@<TRIPOS>MOLECULE
guest-s11_confgen4.mol2 : confsearch ligand conformer 1
          20          19           1
SMALL
USER_CHARGES
 
@<TRIPOS>ATOM
       1    N1      19.735827   18.939010   25.647858 N.4        1 MOL1        -0.5919
       2    H1      19.533170   17.936038   25.705855 H          1 MOL1         0.3682
       3    H2      20.263231   19.184900   26.492241 H          1 MOL1         0.3682
       4    H3      18.838699   19.431327   25.704185 H          1 MOL1         0.3682
       5    C1      20.497247   19.291234   24.385849 C.3        1 MOL1         0.0252
       6    H4      21.451126   18.757208   24.407024 H          1 MOL1         0.0971
       7    H5      20.704399   20.364655   24.405126 H          1 MOL1         0.0971
       8    C2      19.732554   18.934475   23.098513 C.3        1 MOL1        -0.1369
       9    H6      19.512691   17.858524   23.090958 H          1 MOL1         0.0997
      10    H7      18.768526   19.460430   23.089053 H          1 MOL1         0.0997
      11    C3      20.542073   19.309032   21.837119 C.3        1 MOL1        -0.1329
      12    H8      21.508048   18.785155   21.852475 H          1 MOL1         0.0997
      13    H9      20.764707   20.385158   21.850521 H          1 MOL1         0.0997
      14    C4      19.783862   18.955183   20.538102 C.3        1 MOL1        -0.1305
      15    H10     19.560955   17.879070   20.519635 H          1 MOL1         0.0997
      16    H11     18.817769   19.478911   20.517622 H          1 MOL1         0.0997
      17    C5      20.596437   19.331066   19.280560 C.3        1 MOL1        -0.2320
      18    H12     21.554737   18.796071   19.254930 H          1 MOL1         0.1008
      19    H13     20.042103   19.072326   18.369071 H          1 MOL1         0.1008
      20    H14     20.805632   20.408416   19.252821 H          1 MOL1         0.1008
@<TRIPOS>BOND
    1     1     2    1
    2     1     3    1
    3     1     4    1
    4     1     5    1
    5     5     6    1
    6     5     7    1
    7     5     8    1
    8     8     9    1
    9     8    10    1
   10     8    11    1
   11    11    12    1
   12    11    13    1
   13    11    14    1
   14    14    15    1
   15    14    16    1
   16    14    17    1
   17    17    18    1
   18    17    19    1
   19    17    20    1
@<TRIPOS>SUBSTRUCTURE
       1 MOL1            1 RESIDUE      1      MOL     
@<SCITEGIC>MOL_PROPERTY
VConf Rank
SciTegic.value.IntegerValue
1

@<SCITEGIC>MOL_PROPERTY
Conf_Id
SciTegic.value.IntegerValue
72

@<SCITEGIC>MOL_PROPERTY
Delta U+W
SciTegic.value.DoubleValue
0.000

@<SCITEGIC>MOL_PROPERTY
U+W
SciTegic.value.DoubleValue
-11.778

@<SCITEGIC>MOL_PROPERTY
Grad RMS
SciTegic.value.DoubleValue
0.000000

@<SCITEGIC>MOL_PROPERTY
U
SciTegic.value.DoubleValue
45.772

@<SCITEGIC>MOL_PROPERTY
W
SciTegic.value.DoubleValue
-57.550

@<SCITEGIC>MOL_PROPERTY
W(PB)
SciTegic.value.DoubleValue
-59.511

@<SCITEGIC>MOL_PROPERTY
W(SA)
SciTegic.value.DoubleValue
1.961

@<SCITEGIC>MOL_PROPERTY
Valence
SciTegic.value.DoubleValue
1.299

@<SCITEGIC>MOL_PROPERTY
Coulomb
SciTegic.value.DoubleValue
44.177

@<SCITEGIC>MOL_PROPERTY
VdW
SciTegic.value.DoubleValue
0.297

@<SCITEGIC>MOL_PROPERTY
VdW6
SciTegic.value.DoubleValue
-3.490

@<SCITEGIC>MOL_PROPERTY
VdW12
SciTegic.value.DoubleValue
3.786

@<SCITEGIC>MOL_PROPERTY
Bond
SciTegic.value.DoubleValue
0.096

@<SCITEGIC>MOL_PROPERTY
Angle
SciTegic.value.DoubleValue
0.381

@<SCITEGIC>MOL_PROPERTY
Pdih
SciTegic.value.DoubleValue
0.822

@<SCITEGIC>MOL_PROPERTY
Idih
SciTegic.value.DoubleValue
0.000

@<SCITEGIC>MOL_PROPERTY
Tether
SciTegic.value.DoubleValue
0.000

@<TRIPOS>MOLECULE
guest-s11_confgen4.mol2 : confsearch ligand conformer 2
          20          19           1
SMALL
USER_CHARGES
 
@<TRIPOS>ATOM
       1    N1      19.482222   19.405549   25.413289 N.4        1 MOL1        -0.5919
       2    H1      19.096710   20.346268   25.283815 H          1 MOL1         0.3682
       3    H2      18.690045   18.755684   25.435556 H          1 MOL1         0.3682
       4    H3      19.909558   19.385175   26.345249 H          1 MOL1         0.3682
       5    C1      20.478613   19.047246   24.329131 C.3        1 MOL1         0.0252
       6    H4      20.869550   18.049565   24.546605 H          1 MOL1         0.0971
       7    H5      21.306513   19.759436   24.382731 H          1 MOL1         0.0971
       8    C2      19.868883   19.067756   22.915951 C.3        1 MOL1        -0.1369
       9    H6      19.027980   18.362993   22.871199 H          1 MOL1         0.0997
      10    H7      19.464235   20.067827   22.715492 H          1 MOL1         0.0997
      11    C3      20.919064   18.694301   21.843206 C.3        1 MOL1        -0.1329
      12    H8      21.367105   17.725117   22.103364 H          1 MOL1         0.0997
      13    H9      21.738479   19.426396   21.856729 H          1 MOL1         0.0997
      14    C4      20.334254   18.598368   20.413009 C.3        1 MOL1        -0.1305
      15    H10     21.117206   18.228908   19.735939 H          1 MOL1         0.0997
      16    H11     19.530054   17.849645   20.389497 H          1 MOL1         0.0997
      17    C5      19.804964   19.946781   19.873413 C.3        1 MOL1        -0.2320
      18    H12     20.582484   20.720698   19.912538 H          1 MOL1         0.1008
      19    H13     19.486974   19.843821   18.827835 H          1 MOL1         0.1008
      20    H14     18.939135   20.299364   20.447388 H          1 MOL1         0.1008
@<TRIPOS>BOND
    1     1     2    1
    2     1     3    1
    3     1     4    1
    4     1     5    1
    5     5     6    1
    6     5     7    1
    7     5     8    1
    8     8     9    1
    9     8    10    1
   10     8    11    1
   11    11    12    1
   12    11    13    1
   13    11    14    1
   14    14    15    1
   15    14    16    1
   16    14    17    1
   17    17    18    1
   18    17    19    1
   19    17    20    1
@<TRIPOS>SUBSTRUCTURE
       1 MOL1            1 RESIDUE      1      MOL     
@<SCITEGIC>MOL_PROPERTY
VConf Rank
SciTegic.value.IntegerValue
2

@<SCITEGIC>MOL_PROPERTY
Conf_Id
SciTegic.value.IntegerValue
42

@<SCITEGIC>MOL_PROPERTY
Delta U+W
SciTegic.value.DoubleValue
0.508

@<SCITEGIC>MOL_PROPERTY
U+W
SciTegic.value.DoubleValue
-11.270

@<SCITEGIC>MOL_PROPERTY
Grad RMS
SciTegic.value.DoubleValue
0.000000

@<SCITEGIC>MOL_PROPERTY
U
SciTegic.value.DoubleValue
46.486

@<SCITEGIC>MOL_PROPERTY
W
SciTegic.value.DoubleValue
-57.756

@<SCITEGIC>MOL_PROPERTY
W(PB)
SciTegic.value.DoubleValue
-59.705

@<SCITEGIC>MOL_PROPERTY
W(SA)
SciTegic.value.DoubleValue
1.949

@<SCITEGIC>MOL_PROPERTY
Valence
SciTegic.value.DoubleValue
1.806

@<SCITEGIC>MOL_PROPERTY
Coulomb
SciTegic.value.DoubleValue
44.248

@<SCITEGIC>MOL_PROPERTY
VdW
SciTegic.value.DoubleValue
0.433

@<SCITEGIC>MOL_PROPERTY
VdW6
SciTegic.value.DoubleValue
-4.089

@<SCITEGIC>MOL_PROPERTY
VdW12
SciTegic.value.DoubleValue
4.522

@<SCITEGIC>MOL_PROPERTY
Bond
SciTegic.value.DoubleValue
0.131

@<SCITEGIC>MOL_PROPERTY
Angle
SciTegic.value.DoubleValue
0.628

@<SCITEGIC>MOL_PROPERTY
Pdih
SciTegic.value.DoubleValue
1.047

@<SCITEGIC>MOL_PROPERTY
Idih
SciTegic.value.DoubleValue
0.000

@<SCITEGIC>MOL_PROPERTY
Tether
SciTegic.value.DoubleValue
0.000

@<TRIPOS>MOLECULE
guest-s11_confgen4.mol2 : confsearch ligand conformer 3
          20          19           1
SMALL
USER_CHARGES
 
@<TRIPOS>ATOM
       1    N1      19.929084   18.443856   25.414451 N.4        1 MOL1        -0.5919
       2    H1      18.921514   18.257595   25.436210 H          1 MOL1         0.3682
       3    H2      20.399508   17.542283   25.287162 H          1 MOL1         0.3682
       4    H3      20.188303   18.785418   26.345967 H          1 MOL1         0.3682
       5    C1      20.298797   19.434286   24.328659 C.3        1 MOL1         0.0252
       6    H4      21.376973   19.607798   24.382862 H          1 MOL1         0.0971
       7    H5      19.788261   20.376914   24.543834 H          1 MOL1         0.0971
       8    C2      19.922479   18.952289   22.916096 C.3        1 MOL1        -0.1369
       9    H6      20.425939   17.997643   22.717987 H          1 MOL1         0.0997
      10    H7      18.841577   18.764117   22.870751 H          1 MOL1         0.0997
      11    C3      20.315365   19.993570   21.841616 C.3        1 MOL1        -0.1329
      12    H8      21.403312   20.147703   21.855862 H          1 MOL1         0.0997
      13    H9      19.863364   20.961555   22.099381 H          1 MOL1         0.0997
      14    C4      19.866265   19.605591   20.411774 C.3        1 MOL1        -0.1305
      15    H10     18.775437   19.473749   20.387491 H          1 MOL1         0.0997
      16    H11     20.089453   20.440875   19.733227 H          1 MOL1         0.0997
      17    C5      20.556010   18.330408   19.875404 C.3        1 MOL1        -0.2320
      18    H12     20.266517   17.442443   20.450847 H          1 MOL1         0.1008
      19    H13     20.273311   18.151705   18.829890 H          1 MOL1         0.1008
      20    H14     21.648871   18.425615   19.915448 H          1 MOL1         0.1008
@<TRIPOS>BOND
    1     1     2    1
    2     1     3    1
    3     1     4    1
    4     1     5    1
    5     5     6    1
    6     5     7    1
    7     5     8    1
    8     8     9    1
    9     8    10    1
   10     8    11    1
   11    11    12    1
   12    11    13    1
   13    11    14    1
   14    14    15    1
   15    14    16    1
   16    14    17    1
   17    17    18    1
   18    17    19    1
   19    17    20    1
@<TRIPOS>SUBSTRUCTURE
       1 MOL1            1 RESIDUE      1      MOL     
@<SCITEGIC>MOL_PROPERTY
VConf Rank
SciTegic.value.IntegerValue
3

@<SCITEGIC>MOL_PROPERTY
Conf_Id
SciTegic.value.IntegerValue
41

@<SCITEGIC>MOL_PROPERTY
Delta U+W
SciTegic.value.DoubleValue
0.515

@<SCITEGIC>MOL_PROPERTY
U+W
SciTegic.value.DoubleValue
-11.263

@<SCITEGIC>MOL_PROPERTY
Grad RMS
SciTegic.value.DoubleValue
0.000000

@<SCITEGIC>MOL_PROPERTY
U
SciTegic.value.DoubleValue
46.486

@<SCITEGIC>MOL_PROPERTY
W
SciTegic.value.DoubleValue
-57.749

@<SCITEGIC>MOL_PROPERTY
W(PB)
SciTegic.value.DoubleValue
-59.685

@<SCITEGIC>MOL_PROPERTY
W(SA)
SciTegic.value.DoubleValue
1.936

@<SCITEGIC>MOL_PROPERTY
Valence
SciTegic.value.DoubleValue
1.806

@<SCITEGIC>MOL_PROPERTY
Coulomb
SciTegic.value.DoubleValue
44.248

@<SCITEGIC>MOL_PROPERTY
VdW
SciTegic.value.DoubleValue
0.433

@<SCITEGIC>MOL_PROPERTY
VdW6
SciTegic.value.DoubleValue
-4.089

@<SCITEGIC>MOL_PROPERTY
VdW12
SciTegic.value.DoubleValue
4.522

@<SCITEGIC>MOL_PROPERTY
Bond
SciTegic.value.DoubleValue
0.131

@<SCITEGIC>MOL_PROPERTY
Angle
SciTegic.value.DoubleValue
0.628

@<SCITEGIC>MOL_PROPERTY
Pdih
SciTegic.value.DoubleValue
1.047

@<SCITEGIC>MOL_PROPERTY
Idih
SciTegic.value.DoubleValue
0.000

@<SCITEGIC>MOL_PROPERTY
Tether
SciTegic.value.DoubleValue
0.000

@<TRIPOS>MOLECULE
guest-s11_confgen4.mol2 : confsearch ligand conformer 4
          20          19           1
SMALL
USER_CHARGES
 
@<TRIPOS>ATOM
       1    N1      19.480497   19.173308   25.147739 N.4        1 MOL1        -0.5919
       2    H1      19.658997   19.456135   26.117094 H          1 MOL1         0.3682
       3    H2      18.842608   19.867409   24.747413 H          1 MOL1         0.3682
       4    H3      18.974294   18.283081   25.185795 H          1 MOL1         0.3682
       5    C1      20.764913   19.059122   24.349366 C.3        1 MOL1         0.0252
       6    H4      21.408046   18.336954   24.859712 H          1 MOL1         0.0971
       7    H5      21.264508   20.031489   24.368038 H          1 MOL1         0.0971
       8    C2      20.555329   18.611632   22.889333 C.3        1 MOL1        -0.1369
       9    H6      21.542933   18.447303   22.440733 H          1 MOL1         0.0997
      10    H7      20.037914   17.643271   22.873579 H          1 MOL1         0.0997
      11    C3      19.766212   19.649946   22.052484 C.3        1 MOL1        -0.1329
      12    H8      20.301376   20.609667   22.053975 H          1 MOL1         0.0997
      13    H9      18.793576   19.837904   22.526042 H          1 MOL1         0.0997
      14    C4      19.513828   19.201334   20.592337 C.3        1 MOL1        -0.1305
      15    H10     18.966570   18.248272   20.585387 H          1 MOL1         0.0997
      16    H11     18.856084   19.936059   20.107062 H          1 MOL1         0.0997
      17    C5      20.807220   19.064659   19.756742 C.3        1 MOL1        -0.2320
      18    H12     21.444942   18.253348   20.128702 H          1 MOL1         0.1008
      19    H13     20.565820   18.839384   18.709877 H          1 MOL1         0.1008
      20    H14     21.388864   19.995472   19.773521 H          1 MOL1         0.1008
@<TRIPOS>BOND
    1     1     2    1
    2     1     3    1
    3     1     4    1
    4     1     5    1
    5     5     6    1
    6     5     7    1
    7     5     8    1
    8     8     9    1
    9     8    10    1
   10     8    11    1
   11    11    12    1
   12    11    13    1
   13    11    14    1
   14    14    15    1
   15    14    16    1
   16    14    17    1
   17    17    18    1
   18    17    19    1
   19    17    20    1
@<TRIPOS>SUBSTRUCTURE
       1 MOL1            1 RESIDUE      1      MOL     
@<SCITEGIC>MOL_PROPERTY
VConf Rank
SciTegic.value.IntegerValue
4

@<SCITEGIC>MOL_PROPERTY
Conf_Id
SciTegic.value.IntegerValue
33

@<SCITEGIC>MOL_PROPERTY
Delta U+W
SciTegic.value.DoubleValue
0.703

@<SCITEGIC>MOL_PROPERTY
U+W
SciTegic.value.DoubleValue
-11.075

@<SCITEGIC>MOL_PROPERTY
Grad RMS
SciTegic.value.DoubleValue
0.000000

@<SCITEGIC>MOL_PROPERTY
U
SciTegic.value.DoubleValue
47.080

@<SCITEGIC>MOL_PROPERTY
W
SciTegic.value.DoubleValue
-58.154

@<SCITEGIC>MOL_PROPERTY
W(PB)
SciTegic.value.DoubleValue
-60.053

@<SCITEGIC>MOL_PROPERTY
W(SA)
SciTegic.value.DoubleValue
1.899

@<SCITEGIC>MOL_PROPERTY
Valence
SciTegic.value.DoubleValue
1.943

@<SCITEGIC>MOL_PROPERTY
Coulomb
SciTegic.value.DoubleValue
44.572

@<SCITEGIC>MOL_PROPERTY
VdW
SciTegic.value.DoubleValue
0.565

@<SCITEGIC>MOL_PROPERTY
VdW6
SciTegic.value.DoubleValue
-4.575

@<SCITEGIC>MOL_PROPERTY
VdW12
SciTegic.value.DoubleValue
5.139

@<SCITEGIC>MOL_PROPERTY
Bond
SciTegic.value.DoubleValue
0.158

@<SCITEGIC>MOL_PROPERTY
Angle
SciTegic.value.DoubleValue
0.700

@<SCITEGIC>MOL_PROPERTY
Pdih
SciTegic.value.DoubleValue
1.085

@<SCITEGIC>MOL_PROPERTY
Idih
SciTegic.value.DoubleValue
0.000

@<SCITEGIC>MOL_PROPERTY
Tether
SciTegic.value.DoubleValue
0.000

@<TRIPOS>MOLECULE
guest-s11_confgen4.mol2 : confsearch ligand conformer 5
          20          19           1
SMALL
USER_CHARGES
 
@<TRIPOS>ATOM
       1    N1      19.750758   18.591825   25.148467 N.4        1 MOL1        -0.5919
       2    H1      20.081202   18.547773   26.118192 H          1 MOL1         0.3682
       3    H2      18.743918   18.779199   25.185292 H          1 MOL1         0.3682
       4    H3      19.870139   17.655874   24.750117 H          1 MOL1         0.3682
       5    C1      20.492560   19.645449   24.348612 C.3        1 MOL1         0.0252
       6    H4      21.557859   19.400138   24.368660 H          1 MOL1         0.0971
       7    H5      20.355045   20.603729   24.856934 H          1 MOL1         0.0971
       8    C2      20.016633   19.770981   22.887929 C.3        1 MOL1        -0.1369
       9    H6      18.942906   20.000129   22.870808 H          1 MOL1         0.0997
      10    H7      20.528433   20.630788   22.438038 H          1 MOL1         0.0997
      11    C3      20.301830   18.496556   22.053890 C.3        1 MOL1        -0.1329
      12    H8      19.817548   17.633039   22.528673 H          1 MOL1         0.0997
      13    H9      21.380390   18.286394   22.056887 H          1 MOL1         0.0997
      14    C4      19.797714   18.590201   20.593044 C.3        1 MOL1        -0.1305
      15    H10     19.935307   17.612686   20.109853 H          1 MOL1         0.0997
      16    H11     18.716452   18.786843   20.584600 H          1 MOL1         0.0997
      17    C5      20.528505   19.664987   19.756058 C.3        1 MOL1        -0.2320
      18    H12     21.614946   19.509045   19.774342 H          1 MOL1         0.1008
      19    H13     20.201788   19.623710   18.708919 H          1 MOL1         0.1008
      20    H14     20.319519   20.676389   20.125737 H          1 MOL1         0.1008
@<TRIPOS>BOND
    1     1     2    1
    2     1     3    1
    3     1     4    1
    4     1     5    1
    5     5     6    1
    6     5     7    1
    7     5     8    1
    8     8     9    1
    9     8    10    1
   10     8    11    1
   11    11    12    1
   12    11    13    1
   13    11    14    1
   14    14    15    1
   15    14    16    1
   16    14    17    1
   17    17    18    1
   18    17    19    1
   19    17    20    1
@<TRIPOS>SUBSTRUCTURE
       1 MOL1            1 RESIDUE      1      MOL     
@<SCITEGIC>MOL_PROPERTY
VConf Rank
SciTegic.value.IntegerValue
5

@<SCITEGIC>MOL_PROPERTY
Conf_Id
SciTegic.value.IntegerValue
24

@<SCITEGIC>MOL_PROPERTY
Delta U+W
SciTegic.value.DoubleValue
0.847

@<SCITEGIC>MOL_PROPERTY
U+W
SciTegic.value.DoubleValue
-10.931

@<SCITEGIC>MOL_PROPERTY
Grad RMS
SciTegic.value.DoubleValue
0.000000

@<SCITEGIC>MOL_PROPERTY
U
SciTegic.value.DoubleValue
47.080

@<SCITEGIC>MOL_PROPERTY
W
SciTegic.value.DoubleValue
-58.011

@<SCITEGIC>MOL_PROPERTY
W(PB)
SciTegic.value.DoubleValue
-59.914

@<SCITEGIC>MOL_PROPERTY
W(SA)
SciTegic.value.DoubleValue
1.903

@<SCITEGIC>MOL_PROPERTY
Valence
SciTegic.value.DoubleValue
1.943

@<SCITEGIC>MOL_PROPERTY
Coulomb
SciTegic.value.DoubleValue
44.572

@<SCITEGIC>MOL_PROPERTY
VdW
SciTegic.value.DoubleValue
0.565

@<SCITEGIC>MOL_PROPERTY
VdW6
SciTegic.value.DoubleValue
-4.575

@<SCITEGIC>MOL_PROPERTY
VdW12
SciTegic.value.DoubleValue
5.140

@<SCITEGIC>MOL_PROPERTY
Bond
SciTegic.value.DoubleValue
0.158

@<SCITEGIC>MOL_PROPERTY
Angle
SciTegic.value.DoubleValue
0.700

@<SCITEGIC>MOL_PROPERTY
Pdih
SciTegic.value.DoubleValue
1.085

@<SCITEGIC>MOL_PROPERTY
Idih
SciTegic.value.DoubleValue
0.000

@<SCITEGIC>MOL_PROPERTY
Tether
SciTegic.value.DoubleValue
0.000

@<TRIPOS>MOLECULE
guest-s11_confgen4.mol2 : confsearch ligand conformer 6
          20          19           1
SMALL
USER_CHARGES
 
@<TRIPOS>ATOM
       1    N1      19.927838   19.754368   25.173761 N.4        1 MOL1        -0.5919
       2    H1      20.651206   20.152799   25.781611 H          1 MOL1         0.3682
       3    H2      19.245331   20.498091   24.996891 H          1 MOL1         0.3682
       4    H3      19.449271   19.029436   25.717596 H          1 MOL1         0.3682
       5    C1      20.512468   19.204483   23.888397 C.3        1 MOL1         0.0252
       6    H4      21.249326   18.440869   24.151666 H          1 MOL1         0.0971
       7    H5      21.030458   20.021145   23.378757 H          1 MOL1         0.0971
       8    C2      19.450842   18.598405   22.951249 C.3        1 MOL1        -0.1369
       9    H6      18.908800   17.807652   23.486655 H          1 MOL1         0.0997
      10    H7      18.705559   19.361719   22.693648 H          1 MOL1         0.0997
      11    C3      20.062816   17.998502   21.660668 C.3        1 MOL1        -0.1329
      12    H8      19.255619   17.575182   21.047075 H          1 MOL1         0.0997
      13    H9      20.710288   17.153321   21.932589 H          1 MOL1         0.0997
      14    C4      20.880893   18.997551   20.802836 C.3        1 MOL1        -0.1305
      15    H10     21.755666   19.352606   21.364517 H          1 MOL1         0.0997
      16    H11     21.280601   18.463599   19.929332 H          1 MOL1         0.0997
      17    C5      20.053143   20.206692   20.311088 C.3        1 MOL1        -0.2320
      18    H12     20.650257   20.831781   19.634610 H          1 MOL1         0.1008
      19    H13     19.160476   19.877695   19.763472 H          1 MOL1         0.1008
      20    H14     19.730422   20.840397   21.146495 H          1 MOL1         0.1008
@<TRIPOS>BOND
    1     1     2    1
    2     1     3    1
    3     1     4    1
    4     1     5    1
    5     5     6    1
    6     5     7    1
    7     5     8    1
    8     8     9    1
    9     8    10    1
   10     8    11    1
   11    11    12    1
   12    11    13    1
   13    11    14    1
   14    14    15    1
   15    14    16    1
   16    14    17    1
   17    17    18    1
   18    17    19    1
   19    17    20    1
@<TRIPOS>SUBSTRUCTURE
       1 MOL1            1 RESIDUE      1      MOL     
@<SCITEGIC>MOL_PROPERTY
VConf Rank
SciTegic.value.IntegerValue
6

@<SCITEGIC>MOL_PROPERTY
Conf_Id
SciTegic.value.IntegerValue
64

@<SCITEGIC>MOL_PROPERTY
Delta U+W
SciTegic.value.DoubleValue
0.707

@<SCITEGIC>MOL_PROPERTY
U+W
SciTegic.value.DoubleValue
-11.070

@<SCITEGIC>MOL_PROPERTY
Grad RMS
SciTegic.value.DoubleValue
0.000000

@<SCITEGIC>MOL_PROPERTY
U
SciTegic.value.DoubleValue
47.077

@<SCITEGIC>MOL_PROPERTY
W
SciTegic.value.DoubleValue
-58.148

@<SCITEGIC>MOL_PROPERTY
W(PB)
SciTegic.value.DoubleValue
-60.054

@<SCITEGIC>MOL_PROPERTY
W(SA)
SciTegic.value.DoubleValue
1.906

@<SCITEGIC>MOL_PROPERTY
Valence
SciTegic.value.DoubleValue
2.039

@<SCITEGIC>MOL_PROPERTY
Coulomb
SciTegic.value.DoubleValue
44.655

@<SCITEGIC>MOL_PROPERTY
VdW
SciTegic.value.DoubleValue
0.383

@<SCITEGIC>MOL_PROPERTY
VdW6
SciTegic.value.DoubleValue
-4.912

@<SCITEGIC>MOL_PROPERTY
VdW12
SciTegic.value.DoubleValue
5.295

@<SCITEGIC>MOL_PROPERTY
Bond
SciTegic.value.DoubleValue
0.159

@<SCITEGIC>MOL_PROPERTY
Angle
SciTegic.value.DoubleValue
0.856

@<SCITEGIC>MOL_PROPERTY
Pdih
SciTegic.value.DoubleValue
1.024

@<SCITEGIC>MOL_PROPERTY
Idih
SciTegic.value.DoubleValue
0.000

@<SCITEGIC>MOL_PROPERTY
Tether
SciTegic.value.DoubleValue
0.000

@<TRIPOS>MOLECULE
guest-s11_confgen4.mol2 : confsearch ligand conformer 7
          20          19           1
SMALL
USER_CHARGES
 
@<TRIPOS>ATOM
       1    N1      20.482417   18.558101   25.175079 N.4        1 MOL1        -0.5919
       2    H1      19.619426   18.662316   25.717936 H          1 MOL1         0.3682
       3    H2      20.609141   17.556316   25.000180 H          1 MOL1         0.3682
       4    H3      21.253370   18.853826   25.783080 H          1 MOL1         0.3682
       5    C1      20.441694   19.357212   23.888187 C.3        1 MOL1         0.0252
       6    H4      21.400091   19.223784   23.379605 H          1 MOL1         0.0971
       7    H5      20.334931   20.413505   24.149390 H          1 MOL1         0.0971
       8    C2      19.293891   18.936963   22.950872 C.3        1 MOL1        -0.1369
       9    H6      19.394964   17.874433   22.695390 H          1 MOL1         0.0997
      10    H7      18.339705   19.035368   23.485292 H          1 MOL1         0.0997
      11    C3      19.232654   19.789184   21.658600 C.3        1 MOL1        -0.1329
      12    H8      19.005806   20.829992   21.928327 H          1 MOL1         0.0997
      13    H9      18.388512   19.445529   21.044933 H          1 MOL1         0.0997
      14    C4      20.524483   19.766277   20.801934 C.3        1 MOL1        -0.1305
      15    H10     20.376016   20.414624   19.927014 H          1 MOL1         0.0997
      16    H11     21.360219   20.205586   21.363476 H          1 MOL1         0.0997
      17    C5      20.912860   18.352263   20.313327 C.3        1 MOL1        -0.2320
      18    H12     20.085458   17.882502   19.765873 H          1 MOL1         0.1008
      19    H13     21.776387   18.402721   19.637546 H          1 MOL1         0.1008
      20    H14     21.187191   17.698129   21.150278 H          1 MOL1         0.1008
@<TRIPOS>BOND
    1     1     2    1
    2     1     3    1
    3     1     4    1
    4     1     5    1
    5     5     6    1
    6     5     7    1
    7     5     8    1
    8     8     9    1
    9     8    10    1
   10     8    11    1
   11    11    12    1
   12    11    13    1
   13    11    14    1
   14    14    15    1
   15    14    16    1
   16    14    17    1
   17    17    18    1
   18    17    19    1
   19    17    20    1
@<TRIPOS>SUBSTRUCTURE
       1 MOL1            1 RESIDUE      1      MOL     
@<SCITEGIC>MOL_PROPERTY
VConf Rank
SciTegic.value.IntegerValue
7

@<SCITEGIC>MOL_PROPERTY
Conf_Id
SciTegic.value.IntegerValue
22

@<SCITEGIC>MOL_PROPERTY
Delta U+W
SciTegic.value.DoubleValue
0.731

@<SCITEGIC>MOL_PROPERTY
U+W
SciTegic.value.DoubleValue
-11.047

@<SCITEGIC>MOL_PROPERTY
Grad RMS
SciTegic.value.DoubleValue
0.000000

@<SCITEGIC>MOL_PROPERTY
U
SciTegic.value.DoubleValue
47.078

@<SCITEGIC>MOL_PROPERTY
W
SciTegic.value.DoubleValue
-58.125

@<SCITEGIC>MOL_PROPERTY
W(PB)
SciTegic.value.DoubleValue
-60.031

@<SCITEGIC>MOL_PROPERTY
W(SA)
SciTegic.value.DoubleValue
1.906

@<SCITEGIC>MOL_PROPERTY
Valence
SciTegic.value.DoubleValue
2.039

@<SCITEGIC>MOL_PROPERTY
Coulomb
SciTegic.value.DoubleValue
44.655

@<SCITEGIC>MOL_PROPERTY
VdW
SciTegic.value.DoubleValue
0.383

@<SCITEGIC>MOL_PROPERTY
VdW6
SciTegic.value.DoubleValue
-4.913

@<SCITEGIC>MOL_PROPERTY
VdW12
SciTegic.value.DoubleValue
5.296

@<SCITEGIC>MOL_PROPERTY
Bond
SciTegic.value.DoubleValue
0.159

@<SCITEGIC>MOL_PROPERTY
Angle
SciTegic.value.DoubleValue
0.856

@<SCITEGIC>MOL_PROPERTY
Pdih
SciTegic.value.DoubleValue
1.024

@<SCITEGIC>MOL_PROPERTY
Idih
SciTegic.value.DoubleValue
0.000

@<SCITEGIC>MOL_PROPERTY
Tether
SciTegic.value.DoubleValue
0.000

@<TRIPOS>MOLECULE
guest-s11_confgen4.mol2 : confsearch ligand conformer 8
          20          19           1
SMALL
USER_CHARGES
 
@<TRIPOS>ATOM
       1    N1      20.021416   19.693957   25.198834 N.4        1 MOL1        -0.5919
       2    H1      19.009621   19.764859   25.345724 H          1 MOL1         0.3682
       3    H2      20.353632   18.907724   25.766091 H          1 MOL1         0.3682
       4    H3      20.439509   20.542838   25.593920 H          1 MOL1         0.3682
       5    C1      20.370520   19.523018   23.734075 C.3        1 MOL1         0.0252
       6    H4      21.459732   19.482258   23.648338 H          1 MOL1         0.0971
       7    H5      20.012680   20.407715   23.202541 H          1 MOL1         0.0971
       8    C2      19.752749   18.259431   23.109273 C.3        1 MOL1        -0.1369
       9    H6      20.024315   17.391992   23.725492 H          1 MOL1         0.0997
      10    H7      18.657646   18.332880   23.143059 H          1 MOL1         0.0997
      11    C3      20.211344   17.989769   21.653634 C.3        1 MOL1        -0.1329
      12    H8      19.784461   17.024768   21.346883 H          1 MOL1         0.0997
      13    H9      21.301442   17.856385   21.618374 H          1 MOL1         0.0997
      14    C4      19.769135   19.058902   20.620873 C.3        1 MOL1        -0.1305
      15    H10     19.674991   18.572277   19.639834 H          1 MOL1         0.0997
      16    H11     18.766794   19.435909   20.867689 H          1 MOL1         0.0997
      17    C5      20.762836   20.234923   20.471311 C.3        1 MOL1        -0.2320
      18    H12     20.843807   20.829957   21.386873 H          1 MOL1         0.1008
      19    H13     21.765656   19.872356   20.210731 H          1 MOL1         0.1008
      20    H14     20.436321   20.910695   19.670247 H          1 MOL1         0.1008
@<TRIPOS>BOND
    1     1     2    1
    2     1     3    1
    3     1     4    1
    4     1     5    1
    5     5     6    1
    6     5     7    1
    7     5     8    1
    8     8     9    1
    9     8    10    1
   10     8    11    1
   11    11    12    1
   12    11    13    1
   13    11    14    1
   14    14    15    1
   15    14    16    1
   16    14    17    1
   17    17    18    1
   18    17    19    1
   19    17    20    1
@<TRIPOS>SUBSTRUCTURE
       1 MOL1            1 RESIDUE      1      MOL     
@<SCITEGIC>MOL_PROPERTY
VConf Rank
SciTegic.value.IntegerValue
8

@<SCITEGIC>MOL_PROPERTY
Conf_Id
SciTegic.value.IntegerValue
61

@<SCITEGIC>MOL_PROPERTY
Delta U+W
SciTegic.value.DoubleValue
2.669

@<SCITEGIC>MOL_PROPERTY
U+W
SciTegic.value.DoubleValue
-9.108

@<SCITEGIC>MOL_PROPERTY
Grad RMS
SciTegic.value.DoubleValue
0.000000

@<SCITEGIC>MOL_PROPERTY
U
SciTegic.value.DoubleValue
48.916

@<SCITEGIC>MOL_PROPERTY
W
SciTegic.value.DoubleValue
-58.025

@<SCITEGIC>MOL_PROPERTY
W(PB)
SciTegic.value.DoubleValue
-59.935

@<SCITEGIC>MOL_PROPERTY
W(SA)
SciTegic.value.DoubleValue
1.911

@<SCITEGIC>MOL_PROPERTY
Valence
SciTegic.value.DoubleValue
3.785

@<SCITEGIC>MOL_PROPERTY
Coulomb
SciTegic.value.DoubleValue
44.716

@<SCITEGIC>MOL_PROPERTY
VdW
SciTegic.value.DoubleValue
0.415

@<SCITEGIC>MOL_PROPERTY
VdW6
SciTegic.value.DoubleValue
-4.836

@<SCITEGIC>MOL_PROPERTY
VdW12
SciTegic.value.DoubleValue
5.251

@<SCITEGIC>MOL_PROPERTY
Bond
SciTegic.value.DoubleValue
0.175

@<SCITEGIC>MOL_PROPERTY
Angle
SciTegic.value.DoubleValue
1.195

@<SCITEGIC>MOL_PROPERTY
Pdih
SciTegic.value.DoubleValue
2.415

@<SCITEGIC>MOL_PROPERTY
Idih
SciTegic.value.DoubleValue
0.000

@<SCITEGIC>MOL_PROPERTY
Tether
SciTegic.value.DoubleValue
0.000

@<TRIPOS>MOLECULE
guest-s11_confgen4.mol2 : confsearch ligand conformer 9
          20          19           1
SMALL
USER_CHARGES
 
@<TRIPOS>ATOM
       1    N1      19.664362   17.970265   24.395683 N.4        1 MOL1        -0.5919
       2    H1      20.027826   17.327961   25.107709 H          1 MOL1         0.3682
       3    H2      18.682767   18.148309   24.630361 H          1 MOL1         0.3682
       4    H3      19.675514   17.468130   23.504189 H          1 MOL1         0.3682
       5    C1      20.469727   19.254054   24.333673 C.3        1 MOL1         0.0252
       6    H4      21.515228   19.000768   24.138454 H          1 MOL1         0.0971
       7    H5      20.412763   19.713271   25.324348 H          1 MOL1         0.0971
       8    C2      19.971127   20.267888   23.282477 C.3        1 MOL1        -0.1369
       9    H6      18.874429   20.320291   23.300437 H          1 MOL1         0.0997
      10    H7      20.324575   21.262697   23.584639 H          1 MOL1         0.0997
      11    C3      20.476066   20.002803   21.840765 C.3        1 MOL1        -0.1329
      12    H8      21.574829   20.011534   21.830291 H          1 MOL1         0.0997
      13    H9      20.158182   20.842775   21.207616 H          1 MOL1         0.0997
      14    C4      19.964835   18.684243   21.214384 C.3        1 MOL1        -0.1305
      15    H10     20.395210   17.824822   21.743557 H          1 MOL1         0.0997
      16    H11     18.872598   18.619802   21.318347 H          1 MOL1         0.0997
      17    C5      20.341883   18.580746   19.721018 C.3        1 MOL1        -0.2320
      18    H12     19.980626   17.636031   19.294335 H          1 MOL1         0.1008
      19    H13     19.898038   19.401769   19.142966 H          1 MOL1         0.1008
      20    H14     21.430711   18.616869   19.585303 H          1 MOL1         0.1008
@<TRIPOS>BOND
    1     1     2    1
    2     1     3    1
    3     1     4    1
    4     1     5    1
    5     5     6    1
    6     5     7    1
    7     5     8    1
    8     8     9    1
    9     8    10    1
   10     8    11    1
   11    11    12    1
   12    11    13    1
   13    11    14    1
   14    14    15    1
   15    14    16    1
   16    14    17    1
   17    17    18    1
   18    17    19    1
   19    17    20    1
@<TRIPOS>SUBSTRUCTURE
       1 MOL1            1 RESIDUE      1      MOL     
@<SCITEGIC>MOL_PROPERTY
VConf Rank
SciTegic.value.IntegerValue
9

@<SCITEGIC>MOL_PROPERTY
Conf_Id
SciTegic.value.IntegerValue
69

@<SCITEGIC>MOL_PROPERTY
Delta U+W
SciTegic.value.DoubleValue
2.811

@<SCITEGIC>MOL_PROPERTY
U+W
SciTegic.value.DoubleValue
-8.967

@<SCITEGIC>MOL_PROPERTY
Grad RMS
SciTegic.value.DoubleValue
0.000000

@<SCITEGIC>MOL_PROPERTY
U
SciTegic.value.DoubleValue
49.216

@<SCITEGIC>MOL_PROPERTY
W
SciTegic.value.DoubleValue
-58.183

@<SCITEGIC>MOL_PROPERTY
W(PB)
SciTegic.value.DoubleValue
-60.064

@<SCITEGIC>MOL_PROPERTY
W(SA)
SciTegic.value.DoubleValue
1.881

@<SCITEGIC>MOL_PROPERTY
Valence
SciTegic.value.DoubleValue
2.929

@<SCITEGIC>MOL_PROPERTY
Coulomb
SciTegic.value.DoubleValue
46.006

@<SCITEGIC>MOL_PROPERTY
VdW
SciTegic.value.DoubleValue
0.281

@<SCITEGIC>MOL_PROPERTY
VdW6
SciTegic.value.DoubleValue
-4.909

@<SCITEGIC>MOL_PROPERTY
VdW12
SciTegic.value.DoubleValue
5.190

@<SCITEGIC>MOL_PROPERTY
Bond
SciTegic.value.DoubleValue
0.156

@<SCITEGIC>MOL_PROPERTY
Angle
SciTegic.value.DoubleValue
0.974

@<SCITEGIC>MOL_PROPERTY
Pdih
SciTegic.value.DoubleValue
1.799

@<SCITEGIC>MOL_PROPERTY
Idih
SciTegic.value.DoubleValue
0.000

@<SCITEGIC>MOL_PROPERTY
Tether
SciTegic.value.DoubleValue
0.000

@<TRIPOS>MOLECULE
guest-s11_confgen4.mol2 : confsearch ligand conformer 10
          20          19           1
SMALL
USER_CHARGES
 
@<TRIPOS>ATOM
       1    N1      18.950455   19.506560   24.393809 N.4        1 MOL1        -0.5919
       2    H1      18.574656   19.837032   23.501290 H          1 MOL1         0.3682
       3    H2      18.453396   18.641955   24.629806 H          1 MOL1         0.3682
       4    H3      18.693224   20.199988   25.104184 H          1 MOL1         0.3682
       5    C1      20.451075   19.294226   24.333608 C.3        1 MOL1         0.0252
       6    H4      20.764436   18.956611   25.325263 H          1 MOL1         0.0971
       7    H5      20.931798   20.256275   24.136862 H          1 MOL1         0.0971
       8    C2      20.905464   18.257248   23.284951 C.3        1 MOL1        -0.1369
       9    H6      21.893467   17.886565   23.588786 H          1 MOL1         0.0997
      10    H7      20.238344   17.385239   23.304081 H          1 MOL1         0.0997
      11    C3      21.029773   18.811162   21.842211 C.3        1 MOL1        -0.1329
      12    H8      21.467348   18.025244   21.211068 H          1 MOL1         0.0997
      13    H9      21.745003   19.645296   21.830674 H          1 MOL1         0.0997
      14    C4      19.692897   19.269427   21.213668 C.3        1 MOL1        -0.1305
      15    H10     18.939228   18.476372   21.318506 H          1 MOL1         0.0997
      16    H11     19.313057   20.153615   21.740720 H          1 MOL1         0.0997
      17    C5      19.858335   19.621377   19.719753 C.3        1 MOL1        -0.2320
      18    H12     20.200211   18.751568   19.143755 H          1 MOL1         0.1008
      19    H13     18.903722   19.953590   19.291500 H          1 MOL1         0.1008
      20    H14     20.588183   20.430033   19.583123 H          1 MOL1         0.1008
@<TRIPOS>BOND
    1     1     2    1
    2     1     3    1
    3     1     4    1
    4     1     5    1
    5     5     6    1
    6     5     7    1
    7     5     8    1
    8     8     9    1
    9     8    10    1
   10     8    11    1
   11    11    12    1
   12    11    13    1
   13    11    14    1
   14    14    15    1
   15    14    16    1
   16    14    17    1
   17    17    18    1
   18    17    19    1
   19    17    20    1
@<TRIPOS>SUBSTRUCTURE
       1 MOL1            1 RESIDUE      1      MOL     
@<SCITEGIC>MOL_PROPERTY
VConf Rank
SciTegic.value.IntegerValue
10

@<SCITEGIC>MOL_PROPERTY
Conf_Id
SciTegic.value.IntegerValue
26

@<SCITEGIC>MOL_PROPERTY
Delta U+W
SciTegic.value.DoubleValue
2.809

@<SCITEGIC>MOL_PROPERTY
U+W
SciTegic.value.DoubleValue
-8.969

@<SCITEGIC>MOL_PROPERTY
Grad RMS
SciTegic.value.DoubleValue
0.000000

@<SCITEGIC>MOL_PROPERTY
U
SciTegic.value.DoubleValue
49.216

@<SCITEGIC>MOL_PROPERTY
W
SciTegic.value.DoubleValue
-58.185

@<SCITEGIC>MOL_PROPERTY
W(PB)
SciTegic.value.DoubleValue
-60.088

@<SCITEGIC>MOL_PROPERTY
W(SA)
SciTegic.value.DoubleValue
1.903

@<SCITEGIC>MOL_PROPERTY
Valence
SciTegic.value.DoubleValue
2.929

@<SCITEGIC>MOL_PROPERTY
Coulomb
SciTegic.value.DoubleValue
46.006

@<SCITEGIC>MOL_PROPERTY
VdW
SciTegic.value.DoubleValue
0.281

@<SCITEGIC>MOL_PROPERTY
VdW6
SciTegic.value.DoubleValue
-4.909

@<SCITEGIC>MOL_PROPERTY
VdW12
SciTegic.value.DoubleValue
5.190

@<SCITEGIC>MOL_PROPERTY
Bond
SciTegic.value.DoubleValue
0.156

@<SCITEGIC>MOL_PROPERTY
Angle
SciTegic.value.DoubleValue
0.974

@<SCITEGIC>MOL_PROPERTY
Pdih
SciTegic.value.DoubleValue
1.799

@<SCITEGIC>MOL_PROPERTY
Idih
SciTegic.value.DoubleValue
0.000

@<SCITEGIC>MOL_PROPERTY
Tether
SciTegic.value.DoubleValue
0.000

@<TRIPOS>MOLECULE
guest-s11_confgen4.mol2 : confsearch ligand conformer 11
          20          19           1
SMALL
USER_CHARGES
 
@<TRIPOS>ATOM
       1    N1      19.324887   19.369904   24.736725 N.4        1 MOL1        -0.5919
       2    H1      18.512962   19.167338   24.146231 H          1 MOL1         0.3682
       3    H2      19.460107   18.562427   25.352951 H          1 MOL1         0.3682
       4    H3      19.071117   20.162836   25.335198 H          1 MOL1         0.3682
       5    C1      20.561696   19.661066   23.909363 C.3        1 MOL1         0.0252
       6    H4      21.375986   19.897705   24.599611 H          1 MOL1         0.0971
       7    H5      20.363453   20.548215   23.302241 H          1 MOL1         0.0971
       8    C2      20.986892   18.491918   22.997993 C.3        1 MOL1        -0.1369
       9    H6      21.926648   18.757478   22.497126 H          1 MOL1         0.0997
      10    H7      21.216212   17.616610   23.619994 H          1 MOL1         0.0997
      11    C3      19.924246   18.100335   21.937596 C.3        1 MOL1        -0.1329
      12    H8      19.043931   17.680910   22.442903 H          1 MOL1         0.0997
      13    H9      20.326256   17.286932   21.317949 H          1 MOL1         0.0997
      14    C4      19.468579   19.259529   21.014737 C.3        1 MOL1        -0.1305
      15    H10     18.705094   18.877382   20.322708 H          1 MOL1         0.0997
      16    H11     18.975178   20.043870   21.604534 H          1 MOL1         0.0997
      17    C5      20.621700   19.877248   20.191586 C.3        1 MOL1        -0.2320
      18    H12     21.142866   19.109941   19.604570 H          1 MOL1         0.1008
      19    H13     20.234796   20.629500   19.492080 H          1 MOL1         0.1008
      20    H14     21.356266   20.374251   20.837343 H          1 MOL1         0.1008
@<TRIPOS>BOND
    1     1     2    1
    2     1     3    1
    3     1     4    1
    4     1     5    1
    5     5     6    1
    6     5     7    1
    7     5     8    1
    8     8     9    1
    9     8    10    1
   10     8    11    1
   11    11    12    1
   12    11    13    1
   13    11    14    1
   14    14    15    1
   15    14    16    1
   16    14    17    1
   17    17    18    1
   18    17    19    1
   19    17    20    1
@<TRIPOS>SUBSTRUCTURE
       1 MOL1            1 RESIDUE      1      MOL     
@<SCITEGIC>MOL_PROPERTY
VConf Rank
SciTegic.value.IntegerValue
11

@<SCITEGIC>MOL_PROPERTY
Conf_Id
SciTegic.value.IntegerValue
2

@<SCITEGIC>MOL_PROPERTY
Delta U+W
SciTegic.value.DoubleValue
0.994

@<SCITEGIC>MOL_PROPERTY
U+W
SciTegic.value.DoubleValue
-10.784

@<SCITEGIC>MOL_PROPERTY
Grad RMS
SciTegic.value.DoubleValue
0.000000

@<SCITEGIC>MOL_PROPERTY
U
SciTegic.value.DoubleValue
47.562

@<SCITEGIC>MOL_PROPERTY
W
SciTegic.value.DoubleValue
-58.346

@<SCITEGIC>MOL_PROPERTY
W(PB)
SciTegic.value.DoubleValue
-60.221

@<SCITEGIC>MOL_PROPERTY
W(SA)
SciTegic.value.DoubleValue
1.875

@<SCITEGIC>MOL_PROPERTY
Valence
SciTegic.value.DoubleValue
2.149

@<SCITEGIC>MOL_PROPERTY
Coulomb
SciTegic.value.DoubleValue
45.034

@<SCITEGIC>MOL_PROPERTY
VdW
SciTegic.value.DoubleValue
0.378

@<SCITEGIC>MOL_PROPERTY
VdW6
SciTegic.value.DoubleValue
-5.599

@<SCITEGIC>MOL_PROPERTY
VdW12
SciTegic.value.DoubleValue
5.977

@<SCITEGIC>MOL_PROPERTY
Bond
SciTegic.value.DoubleValue
0.185

@<SCITEGIC>MOL_PROPERTY
Angle
SciTegic.value.DoubleValue
0.935

@<SCITEGIC>MOL_PROPERTY
Pdih
SciTegic.value.DoubleValue
1.028

@<SCITEGIC>MOL_PROPERTY
Idih
SciTegic.value.DoubleValue
0.000

@<SCITEGIC>MOL_PROPERTY
Tether
SciTegic.value.DoubleValue
0.000

@<TRIPOS>MOLECULE
guest-s11_confgen4.mol2 : confsearch ligand conformer 12
          20          19           1
SMALL
USER_CHARGES
 
@<TRIPOS>ATOM
       1    N1      19.800911   18.345170   24.737762 N.4        1 MOL1        -0.5919
       2    H1      19.270560   18.970464   25.352395 H          1 MOL1         0.3682
       3    H2      19.122912   17.854316   24.147576 H          1 MOL1         0.3682
       4    H3      20.242635   17.640877   25.337896 H          1 MOL1         0.3682
       5    C1      20.821893   19.100976   23.909905 C.3        1 MOL1         0.0252
       6    H4      21.372505   18.376140   23.304618 H          1 MOL1         0.0971
       7    H5      21.527334   19.571891   24.599904 H          1 MOL1         0.0971
       8    C2      20.203531   20.178301   22.995965 C.3        1 MOL1        -0.1369
       9    H6      19.682004   20.919296   23.616105 H          1 MOL1         0.0997
      10    H7      21.013066   20.724203   22.494789 H          1 MOL1         0.0997
      11    C3      19.219834   19.616836   21.935734 C.3        1 MOL1        -0.1329
      12    H8      18.858301   20.447495   21.314043 H          1 MOL1         0.0997
      13    H9      18.330947   19.215823   22.440981 H          1 MOL1         0.0997
      14    C4      19.812482   18.518963   21.015691 C.3        1 MOL1        -0.1305
      15    H10     20.092715   17.637103   21.607542 H          1 MOL1         0.0997
      16    H11     19.028676   18.180853   20.323463 H          1 MOL1         0.0997
      17    C5      21.029349   18.999753   20.192944 C.3        1 MOL1        -0.2320
      18    H12     21.882293   19.241561   20.839178 H          1 MOL1         0.1008
      19    H13     21.355212   18.217411   19.495348 H          1 MOL1         0.1008
      20    H14     20.780051   19.891842   19.603887 H          1 MOL1         0.1008
@<TRIPOS>BOND
    1     1     2    1
    2     1     3    1
    3     1     4    1
    4     1     5    1
    5     5     6    1
    6     5     7    1
    7     5     8    1
    8     8     9    1
    9     8    10    1
   10     8    11    1
   11    11    12    1
   12    11    13    1
   13    11    14    1
   14    14    15    1
   15    14    16    1
   16    14    17    1
   17    17    18    1
   18    17    19    1
   19    17    20    1
@<TRIPOS>SUBSTRUCTURE
       1 MOL1            1 RESIDUE      1      MOL     
@<SCITEGIC>MOL_PROPERTY
VConf Rank
SciTegic.value.IntegerValue
12

@<SCITEGIC>MOL_PROPERTY
Conf_Id
SciTegic.value.IntegerValue
1

@<SCITEGIC>MOL_PROPERTY
Delta U+W
SciTegic.value.DoubleValue
1.032

@<SCITEGIC>MOL_PROPERTY
U+W
SciTegic.value.DoubleValue
-10.746

@<SCITEGIC>MOL_PROPERTY
Grad RMS
SciTegic.value.DoubleValue
0.000000

@<SCITEGIC>MOL_PROPERTY
U
SciTegic.value.DoubleValue
47.562

@<SCITEGIC>MOL_PROPERTY
W
SciTegic.value.DoubleValue
-58.308

@<SCITEGIC>MOL_PROPERTY
W(PB)
SciTegic.value.DoubleValue
-60.184

@<SCITEGIC>MOL_PROPERTY
W(SA)
SciTegic.value.DoubleValue
1.877

@<SCITEGIC>MOL_PROPERTY
Valence
SciTegic.value.DoubleValue
2.149

@<SCITEGIC>MOL_PROPERTY
Coulomb
SciTegic.value.DoubleValue
45.035

@<SCITEGIC>MOL_PROPERTY
VdW
SciTegic.value.DoubleValue
0.378

@<SCITEGIC>MOL_PROPERTY
VdW6
SciTegic.value.DoubleValue
-5.599

@<SCITEGIC>MOL_PROPERTY
VdW12
SciTegic.value.DoubleValue
5.978

@<SCITEGIC>MOL_PROPERTY
Bond
SciTegic.value.DoubleValue
0.185

@<SCITEGIC>MOL_PROPERTY
Angle
SciTegic.value.DoubleValue
0.935

@<SCITEGIC>MOL_PROPERTY
Pdih
SciTegic.value.DoubleValue
1.028

@<SCITEGIC>MOL_PROPERTY
Idih
SciTegic.value.DoubleValue
0.000

@<SCITEGIC>MOL_PROPERTY
Tether
SciTegic.value.DoubleValue
0.000

@<TRIPOS>MOLECULE
guest-s11_confgen4.mol2 : confsearch ligand conformer 13
          20          19           1
SMALL
USER_CHARGES
 
@<TRIPOS>ATOM
       1    N1      20.833187   18.615968   24.687366 N.4        1 MOL1        -0.5919
       2    H1      20.108502   18.286163   25.332464 H          1 MOL1         0.3682
       3    H2      21.097396   17.821906   24.097160 H          1 MOL1         0.3682
       4    H3      21.653133   18.852246   25.255877 H          1 MOL1         0.3682
       5    C1      20.359945   19.797815   23.863330 C.3        1 MOL1         0.0252
       6    H4      21.186133   20.114992   23.225104 H          1 MOL1         0.0971
       7    H5      20.138454   20.613806   24.556601 H          1 MOL1         0.0971
       8    C2      19.106267   19.502723   23.012490 C.3        1 MOL1        -0.1369
       9    H6      18.304365   19.178459   23.688970 H          1 MOL1         0.0997
      10    H7      18.751998   20.434299   22.551752 H          1 MOL1         0.0997
      11    C3      19.305092   18.422256   21.915503 C.3        1 MOL1        -0.1329
      12    H8      18.319065   18.000492   21.676150 H          1 MOL1         0.0997
      13    H9      19.895976   17.581907   22.302017 H          1 MOL1         0.0997
      14    C4      19.922017   18.938108   20.589858 C.3        1 MOL1        -0.1305
      15    H10     19.926252   18.110228   19.866986 H          1 MOL1         0.0997
      16    H11     19.275072   19.713998   20.157147 H          1 MOL1         0.0997
      17    C5      21.361492   19.483130   20.719454 C.3        1 MOL1        -0.2320
      18    H12     22.009635   18.775661   21.252519 H          1 MOL1         0.1008
      19    H13     21.796392   19.652674   19.725952 H          1 MOL1         0.1008
      20    H14     21.378914   20.443931   21.247290 H          1 MOL1         0.1008
@<TRIPOS>BOND
    1     1     2    1
    2     1     3    1
    3     1     4    1
    4     1     5    1
    5     5     6    1
    6     5     7    1
    7     5     8    1
    8     8     9    1
    9     8    10    1
   10     8    11    1
   11    11    12    1
   12    11    13    1
   13    11    14    1
   14    14    15    1
   15    14    16    1
   16    14    17    1
   17    17    18    1
   18    17    19    1
   19    17    20    1
@<TRIPOS>SUBSTRUCTURE
       1 MOL1            1 RESIDUE      1      MOL     
@<SCITEGIC>MOL_PROPERTY
VConf Rank
SciTegic.value.IntegerValue
13

@<SCITEGIC>MOL_PROPERTY
Conf_Id
SciTegic.value.IntegerValue
80

@<SCITEGIC>MOL_PROPERTY
Delta U+W
SciTegic.value.DoubleValue
2.920

@<SCITEGIC>MOL_PROPERTY
U+W
SciTegic.value.DoubleValue
-8.857

@<SCITEGIC>MOL_PROPERTY
Grad RMS
SciTegic.value.DoubleValue
0.000000

@<SCITEGIC>MOL_PROPERTY
U
SciTegic.value.DoubleValue
49.434

@<SCITEGIC>MOL_PROPERTY
W
SciTegic.value.DoubleValue
-58.292

@<SCITEGIC>MOL_PROPERTY
W(PB)
SciTegic.value.DoubleValue
-60.170

@<SCITEGIC>MOL_PROPERTY
W(SA)
SciTegic.value.DoubleValue
1.879

@<SCITEGIC>MOL_PROPERTY
Valence
SciTegic.value.DoubleValue
3.798

@<SCITEGIC>MOL_PROPERTY
Coulomb
SciTegic.value.DoubleValue
45.253

@<SCITEGIC>MOL_PROPERTY
VdW
SciTegic.value.DoubleValue
0.384

@<SCITEGIC>MOL_PROPERTY
VdW6
SciTegic.value.DoubleValue
-5.595

@<SCITEGIC>MOL_PROPERTY
VdW12
SciTegic.value.DoubleValue
5.979

@<SCITEGIC>MOL_PROPERTY
Bond
SciTegic.value.DoubleValue
0.198

@<SCITEGIC>MOL_PROPERTY
Angle
SciTegic.value.DoubleValue
1.368

@<SCITEGIC>MOL_PROPERTY
Pdih
SciTegic.value.DoubleValue
2.231

@<SCITEGIC>MOL_PROPERTY
Idih
SciTegic.value.DoubleValue
0.000

@<SCITEGIC>MOL_PROPERTY
Tether
SciTegic.value.DoubleValue
0.000

@<TRIPOS>MOLECULE
guest-s11_confgen4.mol2 : confsearch ligand conformer 14
          20          19           1
SMALL
USER_CHARGES
 
@<TRIPOS>ATOM
       1    N1      20.198253   19.984232   24.685415 N.4        1 MOL1        -0.5919
       2    H1      19.477815   19.645163   25.330466 H          1 MOL1         0.3682
       3    H2      20.907462   20.459053   25.253671 H          1 MOL1         0.3682
       4    H3      19.763104   20.697397   24.093192 H          1 MOL1         0.3682
       5    C1      20.796112   18.858017   23.864464 C.3        1 MOL1         0.0252
       6    H4      21.275560   18.163593   24.559754 H          1 MOL1         0.0971
       7    H5      21.572382   19.282783   23.226109 H          1 MOL1         0.0971
       8    C2      19.762267   18.089242   23.014242 C.3        1 MOL1        -0.1369
       9    H6      20.245507   17.216380   22.555755 H          1 MOL1         0.0997
      10    H7      18.996357   17.687494   23.690851 H          1 MOL1         0.0997
      11    C3      19.066379   18.936248   21.914859 C.3        1 MOL1        -0.1329
      12    H8      18.805349   19.930679   22.299167 H          1 MOL1         0.0997
      13    H9      18.108124   18.454739   21.675444 H          1 MOL1         0.0997
      14    C4      19.859929   19.072037   20.589762 C.3        1 MOL1        -0.1305
      15    H10     20.035601   18.076289   20.159173 H          1 MOL1         0.0997
      16    H11     19.230971   19.608101   19.865196 H          1 MOL1         0.0997
      17    C5      21.205059   19.820223   20.719259 C.3        1 MOL1        -0.2320
      18    H12     21.949782   19.214490   21.248908 H          1 MOL1         0.1008
      19    H13     21.616165   20.041219   19.725739 H          1 MOL1         0.1008
      20    H14     21.082352   20.772867   21.250457 H          1 MOL1         0.1008
@<TRIPOS>BOND
    1     1     2    1
    2     1     3    1
    3     1     4    1
    4     1     5    1
    5     5     6    1
    6     5     7    1
    7     5     8    1
    8     8     9    1
    9     8    10    1
   10     8    11    1
   11    11    12    1
   12    11    13    1
   13    11    14    1
   14    14    15    1
   15    14    16    1
   16    14    17    1
   17    17    18    1
   18    17    19    1
   19    17    20    1
@<TRIPOS>SUBSTRUCTURE
       1 MOL1            1 RESIDUE      1      MOL     
@<SCITEGIC>MOL_PROPERTY
VConf Rank
SciTegic.value.IntegerValue
14

@<SCITEGIC>MOL_PROPERTY
Conf_Id
SciTegic.value.IntegerValue
65

@<SCITEGIC>MOL_PROPERTY
Delta U+W
SciTegic.value.DoubleValue
2.949

@<SCITEGIC>MOL_PROPERTY
U+W
SciTegic.value.DoubleValue
-8.829

@<SCITEGIC>MOL_PROPERTY
Grad RMS
SciTegic.value.DoubleValue
0.000000

@<SCITEGIC>MOL_PROPERTY
U
SciTegic.value.DoubleValue
49.435

@<SCITEGIC>MOL_PROPERTY
W
SciTegic.value.DoubleValue
-58.263

@<SCITEGIC>MOL_PROPERTY
W(PB)
SciTegic.value.DoubleValue
-60.125

@<SCITEGIC>MOL_PROPERTY
W(SA)
SciTegic.value.DoubleValue
1.862

@<SCITEGIC>MOL_PROPERTY
Valence
SciTegic.value.DoubleValue
3.797

@<SCITEGIC>MOL_PROPERTY
Coulomb
SciTegic.value.DoubleValue
45.253

@<SCITEGIC>MOL_PROPERTY
VdW
SciTegic.value.DoubleValue
0.384

@<SCITEGIC>MOL_PROPERTY
VdW6
SciTegic.value.DoubleValue
-5.596

@<SCITEGIC>MOL_PROPERTY
VdW12
SciTegic.value.DoubleValue
5.980

@<SCITEGIC>MOL_PROPERTY
Bond
SciTegic.value.DoubleValue
0.198

@<SCITEGIC>MOL_PROPERTY
Angle
SciTegic.value.DoubleValue
1.369

@<SCITEGIC>MOL_PROPERTY
Pdih
SciTegic.value.DoubleValue
2.230

@<SCITEGIC>MOL_PROPERTY
Idih
SciTegic.value.DoubleValue
0.000

@<SCITEGIC>MOL_PROPERTY
Tether
SciTegic.value.DoubleValue
0.000

@<TRIPOS>MOLECULE
guest-s11_confgen4.mol2 : confsearch ligand conformer 15
          20          19           1
SMALL
USER_CHARGES
 
@<TRIPOS>ATOM
       1    N1      19.335717   20.112801   24.040337 N.4        1 MOL1        -0.5919
       2    H1      19.462042   20.986550   24.562148 H          1 MOL1         0.3682
       3    H2      19.053904   20.363432   23.087714 H          1 MOL1         0.3682
       4    H3      18.547759   19.619370   24.471677 H          1 MOL1         0.3682
       5    C1      20.595729   19.269046   24.040374 C.3        1 MOL1         0.0252
       6    H4      20.828556   19.042718   25.084446 H          1 MOL1         0.0971
       7    H5      21.416440   19.864244   23.631260 H          1 MOL1         0.0971
       8    C2      20.465056   17.947690   23.255929 C.3        1 MOL1        -0.1369
       9    H6      21.220434   17.252409   23.645544 H          1 MOL1         0.0997
      10    H7      19.493449   17.482879   23.469797 H          1 MOL1         0.0997
      11    C3      20.676334   18.065300   21.722505 C.3        1 MOL1        -0.1329
      12    H8      20.610538   17.051581   21.303495 H          1 MOL1         0.0997
      13    H9      21.699908   18.404100   21.510428 H          1 MOL1         0.0997
      14    C4      19.654464   18.960090   20.975744 C.3        1 MOL1        -0.1305
      15    H10     19.457491   18.517719   19.988947 H          1 MOL1         0.0997
      16    H11     18.688216   18.958244   21.497878 H          1 MOL1         0.0997
      17    C5      20.160700   20.405074   20.753112 C.3        1 MOL1        -0.2320
      18    H12     20.448874   20.897358   21.688103 H          1 MOL1         0.1008
      19    H13     21.039701   20.408948   20.095341 H          1 MOL1         0.1008
      20    H14     19.386115   21.016667   20.272328 H          1 MOL1         0.1008
@<TRIPOS>BOND
    1     1     2    1
    2     1     3    1
    3     1     4    1
    4     1     5    1
    5     5     6    1
    6     5     7    1
    7     5     8    1
    8     8     9    1
    9     8    10    1
   10     8    11    1
   11    11    12    1
   12    11    13    1
   13    11    14    1
   14    14    15    1
   15    14    16    1
   16    14    17    1
   17    17    18    1
   18    17    19    1
   19    17    20    1
@<TRIPOS>SUBSTRUCTURE
       1 MOL1            1 RESIDUE      1      MOL     
@<SCITEGIC>MOL_PROPERTY
VConf Rank
SciTegic.value.IntegerValue
15

@<SCITEGIC>MOL_PROPERTY
Conf_Id
SciTegic.value.IntegerValue
77

@<SCITEGIC>MOL_PROPERTY
Delta U+W
SciTegic.value.DoubleValue
5.366

@<SCITEGIC>MOL_PROPERTY
U+W
SciTegic.value.DoubleValue
-6.412

@<SCITEGIC>MOL_PROPERTY
Grad RMS
SciTegic.value.DoubleValue
0.000000

@<SCITEGIC>MOL_PROPERTY
U
SciTegic.value.DoubleValue
51.542

@<SCITEGIC>MOL_PROPERTY
W
SciTegic.value.DoubleValue
-57.954

@<SCITEGIC>MOL_PROPERTY
W(PB)
SciTegic.value.DoubleValue
-59.811

@<SCITEGIC>MOL_PROPERTY
W(SA)
SciTegic.value.DoubleValue
1.857

@<SCITEGIC>MOL_PROPERTY
Valence
SciTegic.value.DoubleValue
5.347

@<SCITEGIC>MOL_PROPERTY
Coulomb
SciTegic.value.DoubleValue
45.870

@<SCITEGIC>MOL_PROPERTY
VdW
SciTegic.value.DoubleValue
0.325

@<SCITEGIC>MOL_PROPERTY
VdW6
SciTegic.value.DoubleValue
-6.161

@<SCITEGIC>MOL_PROPERTY
VdW12
SciTegic.value.DoubleValue
6.486

@<SCITEGIC>MOL_PROPERTY
Bond
SciTegic.value.DoubleValue
0.201

@<SCITEGIC>MOL_PROPERTY
Angle
SciTegic.value.DoubleValue
1.484

@<SCITEGIC>MOL_PROPERTY
Pdih
SciTegic.value.DoubleValue
3.662

@<SCITEGIC>MOL_PROPERTY
Idih
SciTegic.value.DoubleValue
0.000

@<SCITEGIC>MOL_PROPERTY
Tether
SciTegic.value.DoubleValue
0.000

@<TRIPOS>MOLECULE
guest-s11_confgen4.mol2 : confsearch ligand conformer 16
          20          19           1
SMALL
USER_CHARGES
 
@<TRIPOS>ATOM
       1    N1      20.376089   17.873001   24.043062 N.4        1 MOL1        -0.5919
       2    H1      19.490382   17.590095   24.474216 H          1 MOL1         0.3682
       3    H2      20.386614   17.494064   23.091210 H          1 MOL1         0.3682
       4    H3      21.124769   17.406933   24.566455 H          1 MOL1         0.3682
       5    C1      20.544189   19.380083   24.040205 C.3        1 MOL1         0.0252
       6    H4      21.528772   19.622422   23.631463 H          1 MOL1         0.0971
       7    H5      20.520527   19.706095   25.083602 H          1 MOL1         0.0971
       8    C2      19.450915   20.131032   23.253290 C.3        1 MOL1        -0.1369
       9    H6      18.468799   19.688875   23.467190 H          1 MOL1         0.0997
      10    H7      19.406574   21.157520   23.640805 H          1 MOL1         0.0997
      11    C3      19.678409   20.213535   21.719894 C.3        1 MOL1        -0.1329
      12    H8      20.597707   20.776774   21.507487 H          1 MOL1         0.0997
      13    H9      18.861675   20.816266   21.298957 H          1 MOL1         0.0997
      14    C4      19.703730   18.854009   20.975873 C.3        1 MOL1        -0.1305
      15    H10     19.078555   18.117884   21.498882 H          1 MOL1         0.0997
      16    H11     19.239577   18.986872   19.988366 H          1 MOL1         0.0997
      17    C5      21.134667   18.308340   20.755677 C.3        1 MOL1        -0.2320
      18    H12     21.102835   17.321025   20.276744 H          1 MOL1         0.1008
      19    H13     21.705268   18.976266   20.097185 H          1 MOL1         0.1008
      20    H14     21.695819   18.212778   21.691396 H          1 MOL1         0.1008
@<TRIPOS>BOND
    1     1     2    1
    2     1     3    1
    3     1     4    1
    4     1     5    1
    5     5     6    1
    6     5     7    1
    7     5     8    1
    8     8     9    1
    9     8    10    1
   10     8    11    1
   11    11    12    1
   12    11    13    1
   13    11    14    1
   14    14    15    1
   15    14    16    1
   16    14    17    1
   17    17    18    1
   18    17    19    1
   19    17    20    1
@<TRIPOS>SUBSTRUCTURE
       1 MOL1            1 RESIDUE      1      MOL     
@<SCITEGIC>MOL_PROPERTY
VConf Rank
SciTegic.value.IntegerValue
16

@<SCITEGIC>MOL_PROPERTY
Conf_Id
SciTegic.value.IntegerValue
67

@<SCITEGIC>MOL_PROPERTY
Delta U+W
SciTegic.value.DoubleValue
5.353

@<SCITEGIC>MOL_PROPERTY
U+W
SciTegic.value.DoubleValue
-6.425

@<SCITEGIC>MOL_PROPERTY
Grad RMS
SciTegic.value.DoubleValue
0.000000

@<SCITEGIC>MOL_PROPERTY
U
SciTegic.value.DoubleValue
51.541

@<SCITEGIC>MOL_PROPERTY
W
SciTegic.value.DoubleValue
-57.966

@<SCITEGIC>MOL_PROPERTY
W(PB)
SciTegic.value.DoubleValue
-59.821

@<SCITEGIC>MOL_PROPERTY
W(SA)
SciTegic.value.DoubleValue
1.855

@<SCITEGIC>MOL_PROPERTY
Valence
SciTegic.value.DoubleValue
5.347

@<SCITEGIC>MOL_PROPERTY
Coulomb
SciTegic.value.DoubleValue
45.870

@<SCITEGIC>MOL_PROPERTY
VdW
SciTegic.value.DoubleValue
0.325

@<SCITEGIC>MOL_PROPERTY
VdW6
SciTegic.value.DoubleValue
-6.161

@<SCITEGIC>MOL_PROPERTY
VdW12
SciTegic.value.DoubleValue
6.486

@<SCITEGIC>MOL_PROPERTY
Bond
SciTegic.value.DoubleValue
0.201

@<SCITEGIC>MOL_PROPERTY
Angle
SciTegic.value.DoubleValue
1.485

@<SCITEGIC>MOL_PROPERTY
Pdih
SciTegic.value.DoubleValue
3.662

@<SCITEGIC>MOL_PROPERTY
Idih
SciTegic.value.DoubleValue
0.000

@<SCITEGIC>MOL_PROPERTY
Tether
SciTegic.value.DoubleValue
0.000

@<TRIPOS>MOLECULE
guest-s11_confgen4.mol2 : confsearch ligand conformer 17
          20          19           1
SMALL
USER_CHARGES
 
@<TRIPOS>ATOM
       1    N1      21.870078   17.879195   24.878054 N.4        1 MOL1        -0.5919
       2    H1      22.685384   18.496039   24.806182 H          1 MOL1         0.3682
       3    H2      21.735179   17.679952   25.874901 H          1 MOL1         0.3682
       4    H3      22.122470   16.992885   24.429566 H          1 MOL1         0.3682
       5    C1      20.634795   18.497832   24.255276 C.3        1 MOL1         0.0252
       6    H4      20.407506   19.418568   24.799428 H          1 MOL1         0.0971
       7    H5      19.802428   17.802613   24.394385 H          1 MOL1         0.0971
       8    C2      20.804058   18.809874   22.757529 C.3        1 MOL1        -0.1369
       9    H6      21.650898   19.495666   22.621074 H          1 MOL1         0.0997
      10    H7      21.047907   17.885279   22.217409 H          1 MOL1         0.0997
      11    C3      19.524438   19.438251   22.162175 C.3        1 MOL1        -0.1329
      12    H8      19.280482   20.360222   22.708293 H          1 MOL1         0.0997
      13    H9      18.678224   18.751734   22.305031 H          1 MOL1         0.0997
      14    C4      19.682850   19.755968   20.658347 C.3        1 MOL1        -0.1305
      15    H10     20.527097   20.444170   20.511130 H          1 MOL1         0.0997
      16    H11     19.924825   18.835909   20.107904 H          1 MOL1         0.0997
      17    C5      18.402077   20.383643   20.067903 C.3        1 MOL1        -0.2320
      18    H12     18.153030   21.324613   20.575610 H          1 MOL1         0.1008
      19    H13     18.533981   20.602023   19.000216 H          1 MOL1         0.1008
      20    H14     17.546086   19.703752   20.169104 H          1 MOL1         0.1008
@<TRIPOS>BOND
    1     1     2    1
    2     1     3    1
    3     1     4    1
    4     1     5    1
    5     5     6    1
    6     5     7    1
    7     5     8    1
    8     8     9    1
    9     8    10    1
   10     8    11    1
   11    11    12    1
   12    11    13    1
   13    11    14    1
   14    14    15    1
   15    14    16    1
   16    14    17    1
   17    17    18    1
   18    17    19    1
   19    17    20    1
@<TRIPOS>SUBSTRUCTURE
       1 MOL1            1 RESIDUE      1      MOL     
@<SCITEGIC>MOL_PROPERTY
VConf Rank
SciTegic.value.IntegerValue
17

@<SCITEGIC>MOL_PROPERTY
Conf_Id
SciTegic.value.IntegerValue
72

@<SCITEGIC>MOL_PROPERTY
Delta U+W
SciTegic.value.DoubleValue
0.000

@<SCITEGIC>MOL_PROPERTY
U+W
SciTegic.value.DoubleValue
-11.778

@<SCITEGIC>MOL_PROPERTY
Grad RMS
SciTegic.value.DoubleValue
0.000000

@<SCITEGIC>MOL_PROPERTY
U
SciTegic.value.DoubleValue
45.772

@<SCITEGIC>MOL_PROPERTY
W
SciTegic.value.DoubleValue
-57.550

@<SCITEGIC>MOL_PROPERTY
W(PB)
SciTegic.value.DoubleValue
-59.511

@<SCITEGIC>MOL_PROPERTY
W(SA)
SciTegic.value.DoubleValue
1.961

@<SCITEGIC>MOL_PROPERTY
Valence
SciTegic.value.DoubleValue
1.299

@<SCITEGIC>MOL_PROPERTY
Coulomb
SciTegic.value.DoubleValue
44.177

@<SCITEGIC>MOL_PROPERTY
VdW
SciTegic.value.DoubleValue
0.297

@<SCITEGIC>MOL_PROPERTY
VdW6
SciTegic.value.DoubleValue
-3.490

@<SCITEGIC>MOL_PROPERTY
VdW12
SciTegic.value.DoubleValue
3.786

@<SCITEGIC>MOL_PROPERTY
Bond
SciTegic.value.DoubleValue
0.096

@<SCITEGIC>MOL_PROPERTY
Angle
SciTegic.value.DoubleValue
0.381

@<SCITEGIC>MOL_PROPERTY
Pdih
SciTegic.value.DoubleValue
0.822

@<SCITEGIC>MOL_PROPERTY
Idih
SciTegic.value.DoubleValue
0.000

@<SCITEGIC>MOL_PROPERTY
Tether
SciTegic.value.DoubleValue
0.000

@<TRIPOS>MOLECULE
guest-s11_confgen4.mol2 : confsearch ligand conformer 18
          20          19           1
SMALL
USER_CHARGES
 
@<TRIPOS>ATOM
       1    N1      19.164468   16.745190   20.990277 N.4        1 MOL1        -0.5919
       2    H1      18.231018   16.819365   21.406816 H          1 MOL1         0.3682
       3    H2      19.113094   17.168535   20.058342 H          1 MOL1         0.3682
       4    H3      19.350081   15.746055   20.852948 H          1 MOL1         0.3682
       5    C1      20.223755   17.401209   21.852904 C.3        1 MOL1         0.0252
       6    H4      21.192016   17.257647   21.365714 H          1 MOL1         0.0971
       7    H5      20.243747   16.883044   22.815511 H          1 MOL1         0.0971
       8    C2      19.975410   18.903402   22.078764 C.3        1 MOL1        -0.1369
       9    H6      19.940215   19.417196   21.108925 H          1 MOL1         0.0997
      10    H7      18.994187   19.036578   22.551556 H          1 MOL1         0.0997
      11    C3      21.080256   19.531234   22.960960 C.3        1 MOL1        -0.1329
      12    H8      22.060325   19.321187   22.510309 H          1 MOL1         0.0997
      13    H9      21.084837   19.048262   23.948028 H          1 MOL1         0.0997
      14    C4      20.936316   21.062812   23.134803 C.3        1 MOL1        -0.1305
      15    H10     21.812077   21.439476   23.681710 H          1 MOL1         0.0997
      16    H11     20.955324   21.552199   22.150926 H          1 MOL1         0.0997
      17    C5      19.657045   21.477588   23.897009 C.3        1 MOL1        -0.2320
      18    H12     19.599825   20.979473   24.873545 H          1 MOL1         0.1008
      19    H13     19.648890   22.561133   24.072558 H          1 MOL1         0.1008
      20    H14     18.751144   21.229309   23.330332 H          1 MOL1         0.1008
@<TRIPOS>BOND
    1     1     2    1
    2     1     3    1
    3     1     4    1
    4     1     5    1
    5     5     6    1
    6     5     7    1
    7     5     8    1
    8     8     9    1
    9     8    10    1
   10     8    11    1
   11    11    12    1
   12    11    13    1
   13    11    14    1
   14    14    15    1
   15    14    16    1
   16    14    17    1
   17    17    18    1
   18    17    19    1
   19    17    20    1
@<TRIPOS>SUBSTRUCTURE
       1 MOL1            1 RESIDUE      1      MOL     
@<SCITEGIC>MOL_PROPERTY
VConf Rank
SciTegic.value.IntegerValue
18

@<SCITEGIC>MOL_PROPERTY
Conf_Id
SciTegic.value.IntegerValue
42

@<SCITEGIC>MOL_PROPERTY
Delta U+W
SciTegic.value.DoubleValue
0.508

@<SCITEGIC>MOL_PROPERTY
U+W
SciTegic.value.DoubleValue
-11.270

@<SCITEGIC>MOL_PROPERTY
Grad RMS
SciTegic.value.DoubleValue
0.000000

@<SCITEGIC>MOL_PROPERTY
U
SciTegic.value.DoubleValue
46.486

@<SCITEGIC>MOL_PROPERTY
W
SciTegic.value.DoubleValue
-57.756

@<SCITEGIC>MOL_PROPERTY
W(PB)
SciTegic.value.DoubleValue
-59.705

@<SCITEGIC>MOL_PROPERTY
W(SA)
SciTegic.value.DoubleValue
1.949

@<SCITEGIC>MOL_PROPERTY
Valence
SciTegic.value.DoubleValue
1.806

@<SCITEGIC>MOL_PROPERTY
Coulomb
SciTegic.value.DoubleValue
44.248

@<SCITEGIC>MOL_PROPERTY
VdW
SciTegic.value.DoubleValue
0.433

@<SCITEGIC>MOL_PROPERTY
VdW6
SciTegic.value.DoubleValue
-4.089

@<SCITEGIC>MOL_PROPERTY
VdW12
SciTegic.value.DoubleValue
4.522

@<SCITEGIC>MOL_PROPERTY
Bond
SciTegic.value.DoubleValue
0.131

@<SCITEGIC>MOL_PROPERTY
Angle
SciTegic.value.DoubleValue
0.628

@<SCITEGIC>MOL_PROPERTY
Pdih
SciTegic.value.DoubleValue
1.047

@<SCITEGIC>MOL_PROPERTY
Idih
SciTegic.value.DoubleValue
0.000

@<SCITEGIC>MOL_PROPERTY
Tether
SciTegic.value.DoubleValue
0.000

@<TRIPOS>MOLECULE
guest-s11_confgen4.mol2 : confsearch ligand conformer 19
          20          19           1
SMALL
USER_CHARGES
 
@<TRIPOS>ATOM
       1    N1      22.997169   18.552099   21.641203 N.4        1 MOL1        -0.5919
       2    H1      22.850913   17.631930   21.214281 H          1 MOL1         0.3682
       3    H2      22.923994   19.247134   20.891600 H          1 MOL1         0.3682
       4    H3      23.966962   18.574626   21.973732 H          1 MOL1         0.3682
       5    C1      22.011743   18.820243   22.760853 C.3        1 MOL1         0.0252
       6    H4      22.244012   19.799738   23.187640 H          1 MOL1         0.0971
       7    H5      22.166211   18.063367   23.534657 H          1 MOL1         0.0971
       8    C2      20.544788   18.793100   22.295473 C.3        1 MOL1        -0.1369
       9    H6      20.405696   19.543661   21.507197 H          1 MOL1         0.0997
      10    H7      20.320432   17.813345   21.853254 H          1 MOL1         0.0997
      11    C3      19.575599   19.068960   23.469230 C.3        1 MOL1        -0.1329
      12    H8      19.769522   20.068652   23.882264 H          1 MOL1         0.0997
      13    H9      19.782208   18.355318   24.279027 H          1 MOL1         0.0997
      14    C4      18.082300   18.951230   23.078250 C.3        1 MOL1        -0.1305
      15    H10     17.878593   17.944700   22.686744 H          1 MOL1         0.0997
      16    H11     17.470875   19.057049   23.985389 H          1 MOL1         0.0997
      17    C5      17.631216   20.011059   22.047318 C.3        1 MOL1        -0.2320
      18    H12     18.128831   19.870505   21.079823 H          1 MOL1         0.1008
      19    H13     16.549438   19.942344   21.874150 H          1 MOL1         0.1008
      20    H14     17.849840   21.026355   22.402833 H          1 MOL1         0.1008
@<TRIPOS>BOND
    1     1     2    1
    2     1     3    1
    3     1     4    1
    4     1     5    1
    5     5     6    1
    6     5     7    1
    7     5     8    1
    8     8     9    1
    9     8    10    1
   10     8    11    1
   11    11    12    1
   12    11    13    1
   13    11    14    1
   14    14    15    1
   15    14    16    1
   16    14    17    1
   17    17    18    1
   18    17    19    1
   19    17    20    1
@<TRIPOS>SUBSTRUCTURE
       1 MOL1            1 RESIDUE      1      MOL     
@<SCITEGIC>MOL_PROPERTY
VConf Rank
SciTegic.value.IntegerValue
19

@<SCITEGIC>MOL_PROPERTY
Conf_Id
SciTegic.value.IntegerValue
41

@<SCITEGIC>MOL_PROPERTY
Delta U+W
SciTegic.value.DoubleValue
0.515

@<SCITEGIC>MOL_PROPERTY
U+W
SciTegic.value.DoubleValue
-11.263

@<SCITEGIC>MOL_PROPERTY
Grad RMS
SciTegic.value.DoubleValue
0.000000

@<SCITEGIC>MOL_PROPERTY
U
SciTegic.value.DoubleValue
46.486

@<SCITEGIC>MOL_PROPERTY
W
SciTegic.value.DoubleValue
-57.749

@<SCITEGIC>MOL_PROPERTY
W(PB)
SciTegic.value.DoubleValue
-59.685

@<SCITEGIC>MOL_PROPERTY
W(SA)
SciTegic.value.DoubleValue
1.936

@<SCITEGIC>MOL_PROPERTY
Valence
SciTegic.value.DoubleValue
1.806

@<SCITEGIC>MOL_PROPERTY
Coulomb
SciTegic.value.DoubleValue
44.248

@<SCITEGIC>MOL_PROPERTY
VdW
SciTegic.value.DoubleValue
0.433

@<SCITEGIC>MOL_PROPERTY
VdW6
SciTegic.value.DoubleValue
-4.089

@<SCITEGIC>MOL_PROPERTY
VdW12
SciTegic.value.DoubleValue
4.522

@<SCITEGIC>MOL_PROPERTY
Bond
SciTegic.value.DoubleValue
0.131

@<SCITEGIC>MOL_PROPERTY
Angle
SciTegic.value.DoubleValue
0.628

@<SCITEGIC>MOL_PROPERTY
Pdih
SciTegic.value.DoubleValue
1.047

@<SCITEGIC>MOL_PROPERTY
Idih
SciTegic.value.DoubleValue
0.000

@<SCITEGIC>MOL_PROPERTY
Tether
SciTegic.value.DoubleValue
0.000

@<TRIPOS>MOLECULE
guest-s11_confgen4.mol2 : confsearch ligand conformer 20
          20          19           1
SMALL
USER_CHARGES
 
@<TRIPOS>ATOM
       1    N1      19.132813   18.609302   24.984387 N.4        1 MOL1        -0.5919
       2    H1      19.249311   18.481393   25.995114 H          1 MOL1         0.3682
       3    H2      18.872641   19.588698   24.835951 H          1 MOL1         0.3682
       4    H3      18.331013   18.036795   24.702345 H          1 MOL1         0.3682
       5    C1      20.389451   18.236363   24.221537 C.3        1 MOL1         0.0252
       6    H4      20.626601   17.196764   24.463596 H          1 MOL1         0.0971
       7    H5      21.207032   18.864740   24.585054 H          1 MOL1         0.0971
       8    C2      20.260099   18.386482   22.692942 C.3        1 MOL1        -0.1369
       9    H6      21.171701   17.982907   22.234992 H          1 MOL1         0.0997
      10    H7      19.427273   17.767879   22.333193 H          1 MOL1         0.0997
      11    C3      20.059233   19.858003   22.250908 C.3        1 MOL1        -0.1329
      12    H8      20.907289   20.466372   22.594645 H          1 MOL1         0.0997
      13    H9      19.166229   20.268147   22.740738 H          1 MOL1         0.0997
      14    C4      19.890366   20.024549   20.720964 C.3        1 MOL1        -0.1305
      15    H10     19.034609   19.428498   20.374165 H          1 MOL1         0.0997
      16    H11     19.640619   21.073148   20.506474 H          1 MOL1         0.0997
      17    C5      21.152645   19.640095   19.915601 C.3        1 MOL1        -0.2320
      18    H12     21.373255   18.568653   19.996916 H          1 MOL1         0.1008
      19    H13     21.012398   19.866936   18.850790 H          1 MOL1         0.1008
      20    H14     22.029953   20.200026   20.264619 H          1 MOL1         0.1008
@<TRIPOS>BOND
    1     1     2    1
    2     1     3    1
    3     1     4    1
    4     1     5    1
    5     5     6    1
    6     5     7    1
    7     5     8    1
    8     8     9    1
    9     8    10    1
   10     8    11    1
   11    11    12    1
   12    11    13    1
   13    11    14    1
   14    14    15    1
   15    14    16    1
   16    14    17    1
   17    17    18    1
   18    17    19    1
   19    17    20    1
@<TRIPOS>SUBSTRUCTURE
       1 MOL1            1 RESIDUE      1      MOL     
@<SCITEGIC>MOL_PROPERTY
VConf Rank
SciTegic.value.IntegerValue
20

@<SCITEGIC>MOL_PROPERTY
Conf_Id
SciTegic.value.IntegerValue
33

@<SCITEGIC>MOL_PROPERTY
Delta U+W
SciTegic.value.DoubleValue
0.703

@<SCITEGIC>MOL_PROPERTY
U+W
SciTegic.value.DoubleValue
-11.075

@<SCITEGIC>MOL_PROPERTY
Grad RMS
SciTegic.value.DoubleValue
0.000000

@<SCITEGIC>MOL_PROPERTY
U
SciTegic.value.DoubleValue
47.080

@<SCITEGIC>MOL_PROPERTY
W
SciTegic.value.DoubleValue
-58.154

@<SCITEGIC>MOL_PROPERTY
W(PB)
SciTegic.value.DoubleValue
-60.053

@<SCITEGIC>MOL_PROPERTY
W(SA)
SciTegic.value.DoubleValue
1.899

@<SCITEGIC>MOL_PROPERTY
Valence
SciTegic.value.DoubleValue
1.943

@<SCITEGIC>MOL_PROPERTY
Coulomb
SciTegic.value.DoubleValue
44.572

@<SCITEGIC>MOL_PROPERTY
VdW
SciTegic.value.DoubleValue
0.565

@<SCITEGIC>MOL_PROPERTY
VdW6
SciTegic.value.DoubleValue
-4.575

@<SCITEGIC>MOL_PROPERTY
VdW12
SciTegic.value.DoubleValue
5.139

@<SCITEGIC>MOL_PROPERTY
Bond
SciTegic.value.DoubleValue
0.158

@<SCITEGIC>MOL_PROPERTY
Angle
SciTegic.value.DoubleValue
0.700

@<SCITEGIC>MOL_PROPERTY
Pdih
SciTegic.value.DoubleValue
1.085

@<SCITEGIC>MOL_PROPERTY
Idih
SciTegic.value.DoubleValue
0.000

@<SCITEGIC>MOL_PROPERTY
Tether
SciTegic.value.DoubleValue
0.000

@<TRIPOS>MOLECULE
guest-s11_confgen4.mol2 : confsearch ligand conformer 21
          20          19           1
SMALL
USER_CHARGES
 
@<TRIPOS>ATOM
       1    N1      18.460572   21.295957   22.770465 N.4        1 MOL1        -0.5919
       2    H1      18.052180   22.175659   22.437537 H          1 MOL1         0.3682
       3    H2      17.758211   20.849088   23.368118 H          1 MOL1         0.3682
       4    H3      19.254056   21.543393   23.368877 H          1 MOL1         0.3682
       5    C1      18.877581   20.398713   21.621023 C.3        1 MOL1         0.0252
       6    H4      19.606400   20.941509   21.013044 H          1 MOL1         0.0971
       7    H5      17.991801   20.215674   21.006619 H          1 MOL1         0.0971
       8    C2      19.475793   19.049840   22.066607 C.3        1 MOL1        -0.1369
       9    H6      18.748289   18.514838   22.691271 H          1 MOL1         0.0997
      10    H7      19.631560   18.436299   21.170553 H          1 MOL1         0.0997
      11    C3      20.814664   19.211754   22.829709 C.3        1 MOL1        -0.1329
      12    H8      20.660764   19.856333   23.705176 H          1 MOL1         0.0997
      13    H9      21.544538   19.727639   22.190479 H          1 MOL1         0.0997
      14    C4      21.412562   17.869477   23.317340 C.3        1 MOL1        -0.1305
      15    H10     22.291885   18.081915   23.941522 H          1 MOL1         0.0997
      16    H11     20.691381   17.355756   23.968382 H          1 MOL1         0.0997
      17    C5      21.836416   16.928664   22.166260 C.3        1 MOL1        -0.2320
      18    H12     22.533919   17.429816   21.482636 H          1 MOL1         0.1008
      19    H13     22.339368   16.037786   22.564159 H          1 MOL1         0.1008
      20    H14     20.971514   16.585627   21.585277 H          1 MOL1         0.1008
@<TRIPOS>BOND
    1     1     2    1
    2     1     3    1
    3     1     4    1
    4     1     5    1
    5     5     6    1
    6     5     7    1
    7     5     8    1
    8     8     9    1
    9     8    10    1
   10     8    11    1
   11    11    12    1
   12    11    13    1
   13    11    14    1
   14    14    15    1
   15    14    16    1
   16    14    17    1
   17    17    18    1
   18    17    19    1
   19    17    20    1
@<TRIPOS>SUBSTRUCTURE
       1 MOL1            1 RESIDUE      1      MOL     
@<SCITEGIC>MOL_PROPERTY
VConf Rank
SciTegic.value.IntegerValue
21

@<SCITEGIC>MOL_PROPERTY
Conf_Id
SciTegic.value.IntegerValue
24

@<SCITEGIC>MOL_PROPERTY
Delta U+W
SciTegic.value.DoubleValue
0.847

@<SCITEGIC>MOL_PROPERTY
U+W
SciTegic.value.DoubleValue
-10.931

@<SCITEGIC>MOL_PROPERTY
Grad RMS
SciTegic.value.DoubleValue
0.000000

@<SCITEGIC>MOL_PROPERTY
U
SciTegic.value.DoubleValue
47.080

@<SCITEGIC>MOL_PROPERTY
W
SciTegic.value.DoubleValue
-58.011

@<SCITEGIC>MOL_PROPERTY
W(PB)
SciTegic.value.DoubleValue
-59.914

@<SCITEGIC>MOL_PROPERTY
W(SA)
SciTegic.value.DoubleValue
1.903

@<SCITEGIC>MOL_PROPERTY
Valence
SciTegic.value.DoubleValue
1.943

@<SCITEGIC>MOL_PROPERTY
Coulomb
SciTegic.value.DoubleValue
44.572

@<SCITEGIC>MOL_PROPERTY
VdW
SciTegic.value.DoubleValue
0.565

@<SCITEGIC>MOL_PROPERTY
VdW6
SciTegic.value.DoubleValue
-4.575

@<SCITEGIC>MOL_PROPERTY
VdW12
SciTegic.value.DoubleValue
5.140

@<SCITEGIC>MOL_PROPERTY
Bond
SciTegic.value.DoubleValue
0.158

@<SCITEGIC>MOL_PROPERTY
Angle
SciTegic.value.DoubleValue
0.700

@<SCITEGIC>MOL_PROPERTY
Pdih
SciTegic.value.DoubleValue
1.085

@<SCITEGIC>MOL_PROPERTY
Idih
SciTegic.value.DoubleValue
0.000

@<SCITEGIC>MOL_PROPERTY
Tether
SciTegic.value.DoubleValue
0.000

@<TRIPOS>MOLECULE
guest-s11_confgen4.mol2 : confsearch ligand conformer 22
          20          19           1
SMALL
USER_CHARGES
 
@<TRIPOS>ATOM
       1    N1      21.361345   17.529392   20.698055 N.4        1 MOL1        -0.5919
       2    H1      21.039148   17.288474   19.754849 H          1 MOL1         0.3682
       3    H2      22.146306   18.178842   20.587280 H          1 MOL1         0.3682
       4    H3      21.737149   16.670414   21.111864 H          1 MOL1         0.3682
       5    C1      20.249034   18.123129   21.538631 C.3        1 MOL1         0.0252
       6    H4      19.437446   17.392355   21.590314 H          1 MOL1         0.0971
       7    H5      19.878027   19.013442   21.024161 H          1 MOL1         0.0971
       8    C2      20.700532   18.497205   22.963006 C.3        1 MOL1        -0.1369
       9    H6      21.109515   17.605229   23.455826 H          1 MOL1         0.0997
      10    H7      21.521383   19.223889   22.912139 H          1 MOL1         0.0997
      11    C3      19.546415   19.061210   23.828977 C.3        1 MOL1        -0.1329
      12    H8      19.933682   19.294566   24.830392 H          1 MOL1         0.0997
      13    H9      18.791720   18.275540   23.972679 H          1 MOL1         0.0997
      14    C4      18.851863   20.319597   23.248217 C.3        1 MOL1        -0.1305
      15    H10     18.365984   20.078255   22.292992 H          1 MOL1         0.0997
      16    H11     18.043437   20.619331   23.929750 H          1 MOL1         0.0997
      17    C5      19.810255   21.516901   23.055974 C.3        1 MOL1        -0.2320
      18    H12     19.254198   22.406390   22.732686 H          1 MOL1         0.1008
      19    H13     20.324857   21.765278   23.993240 H          1 MOL1         0.1008
      20    H14     20.568986   21.306852   22.291879 H          1 MOL1         0.1008
@<TRIPOS>BOND
    1     1     2    1
    2     1     3    1
    3     1     4    1
    4     1     5    1
    5     5     6    1
    6     5     7    1
    7     5     8    1
    8     8     9    1
    9     8    10    1
   10     8    11    1
   11    11    12    1
   12    11    13    1
   13    11    14    1
   14    14    15    1
   15    14    16    1
   16    14    17    1
   17    17    18    1
   18    17    19    1
   19    17    20    1
@<TRIPOS>SUBSTRUCTURE
       1 MOL1            1 RESIDUE      1      MOL     
@<SCITEGIC>MOL_PROPERTY
VConf Rank
SciTegic.value.IntegerValue
22

@<SCITEGIC>MOL_PROPERTY
Conf_Id
SciTegic.value.IntegerValue
64

@<SCITEGIC>MOL_PROPERTY
Delta U+W
SciTegic.value.DoubleValue
0.707

@<SCITEGIC>MOL_PROPERTY
U+W
SciTegic.value.DoubleValue
-11.070

@<SCITEGIC>MOL_PROPERTY
Grad RMS
SciTegic.value.DoubleValue
0.000000

@<SCITEGIC>MOL_PROPERTY
U
SciTegic.value.DoubleValue
47.077

@<SCITEGIC>MOL_PROPERTY
W
SciTegic.value.DoubleValue
-58.148

@<SCITEGIC>MOL_PROPERTY
W(PB)
SciTegic.value.DoubleValue
-60.054

@<SCITEGIC>MOL_PROPERTY
W(SA)
SciTegic.value.DoubleValue
1.906

@<SCITEGIC>MOL_PROPERTY
Valence
SciTegic.value.DoubleValue
2.039

@<SCITEGIC>MOL_PROPERTY
Coulomb
SciTegic.value.DoubleValue
44.655

@<SCITEGIC>MOL_PROPERTY
VdW
SciTegic.value.DoubleValue
0.383

@<SCITEGIC>MOL_PROPERTY
VdW6
SciTegic.value.DoubleValue
-4.912

@<SCITEGIC>MOL_PROPERTY
VdW12
SciTegic.value.DoubleValue
5.295

@<SCITEGIC>MOL_PROPERTY
Bond
SciTegic.value.DoubleValue
0.159

@<SCITEGIC>MOL_PROPERTY
Angle
SciTegic.value.DoubleValue
0.856

@<SCITEGIC>MOL_PROPERTY
Pdih
SciTegic.value.DoubleValue
1.024

@<SCITEGIC>MOL_PROPERTY
Idih
SciTegic.value.DoubleValue
0.000

@<SCITEGIC>MOL_PROPERTY
Tether
SciTegic.value.DoubleValue
0.000

@<TRIPOS>MOLECULE
guest-s11_confgen4.mol2 : confsearch ligand conformer 23
          20          19           1
SMALL
USER_CHARGES
 
@<TRIPOS>ATOM
       1    N1      18.431540   19.969714   20.597081 N.4        1 MOL1        -0.5919
       2    H1      18.871903   20.408429   19.782270 H          1 MOL1         0.3682
       3    H2      18.187615   19.011387   20.328135 H          1 MOL1         0.3682
       4    H3      17.549531   20.466252   20.761393 H          1 MOL1         0.3682
       5    C1      19.332723   20.004445   21.814862 C.3        1 MOL1         0.0252
       6    H4      18.789593   19.549960   22.647591 H          1 MOL1         0.0971
       7    H5      19.527330   21.051629   22.061668 H          1 MOL1         0.0971
       8    C2      20.667548   19.266048   21.601246 C.3        1 MOL1        -0.1369
       9    H6      20.473097   18.216910   21.344431 H          1 MOL1         0.0997
      10    H7      21.185397   19.703279   20.737289 H          1 MOL1         0.0997
      11    C3      21.600677   19.345319   22.835337 C.3        1 MOL1        -0.1329
      12    H8      21.885089   20.393807   23.000497 H          1 MOL1         0.0997
      13    H9      22.534212   18.811066   22.610954 H          1 MOL1         0.0997
      14    C4      20.995820   18.780302   24.146111 C.3        1 MOL1        -0.1305
      15    H10     21.731465   18.904267   24.953169 H          1 MOL1         0.0997
      16    H11     20.119034   19.370784   24.445029 H          1 MOL1         0.0997
      17    C5      20.608768   17.286958   24.050598 C.3        1 MOL1        -0.2320
      18    H12     21.464203   16.676819   23.732892 H          1 MOL1         0.1008
      19    H13     20.274416   16.913253   25.027050 H          1 MOL1         0.1008
      20    H14     19.789257   17.128006   23.338719 H          1 MOL1         0.1008
@<TRIPOS>BOND
    1     1     2    1
    2     1     3    1
    3     1     4    1
    4     1     5    1
    5     5     6    1
    6     5     7    1
    7     5     8    1
    8     8     9    1
    9     8    10    1
   10     8    11    1
   11    11    12    1
   12    11    13    1
   13    11    14    1
   14    14    15    1
   15    14    16    1
   16    14    17    1
   17    17    18    1
   18    17    19    1
   19    17    20    1
@<TRIPOS>SUBSTRUCTURE
       1 MOL1            1 RESIDUE      1      MOL     
@<SCITEGIC>MOL_PROPERTY
VConf Rank
SciTegic.value.IntegerValue
23

@<SCITEGIC>MOL_PROPERTY
Conf_Id
SciTegic.value.IntegerValue
22

@<SCITEGIC>MOL_PROPERTY
Delta U+W
SciTegic.value.DoubleValue
0.731

@<SCITEGIC>MOL_PROPERTY
U+W
SciTegic.value.DoubleValue
-11.047

@<SCITEGIC>MOL_PROPERTY
Grad RMS
SciTegic.value.DoubleValue
0.000000

@<SCITEGIC>MOL_PROPERTY
U
SciTegic.value.DoubleValue
47.078

@<SCITEGIC>MOL_PROPERTY
W
SciTegic.value.DoubleValue
-58.125

@<SCITEGIC>MOL_PROPERTY
W(PB)
SciTegic.value.DoubleValue
-60.031

@<SCITEGIC>MOL_PROPERTY
W(SA)
SciTegic.value.DoubleValue
1.906

@<SCITEGIC>MOL_PROPERTY
Valence
SciTegic.value.DoubleValue
2.039

@<SCITEGIC>MOL_PROPERTY
Coulomb
SciTegic.value.DoubleValue
44.655

@<SCITEGIC>MOL_PROPERTY
VdW
SciTegic.value.DoubleValue
0.383

@<SCITEGIC>MOL_PROPERTY
VdW6
SciTegic.value.DoubleValue
-4.913

@<SCITEGIC>MOL_PROPERTY
VdW12
SciTegic.value.DoubleValue
5.296

@<SCITEGIC>MOL_PROPERTY
Bond
SciTegic.value.DoubleValue
0.159

@<SCITEGIC>MOL_PROPERTY
Angle
SciTegic.value.DoubleValue
0.856

@<SCITEGIC>MOL_PROPERTY
Pdih
SciTegic.value.DoubleValue
1.024

@<SCITEGIC>MOL_PROPERTY
Idih
SciTegic.value.DoubleValue
0.000

@<SCITEGIC>MOL_PROPERTY
Tether
SciTegic.value.DoubleValue
0.000

@<TRIPOS>MOLECULE
guest-s11_confgen4.mol2 : confsearch ligand conformer 24
          20          19           1
SMALL
USER_CHARGES
 
@<TRIPOS>ATOM
       1    N1      17.947498   19.621288   20.935410 N.4        1 MOL1        -0.5919
       2    H1      18.192573   19.115137   20.078623 H          1 MOL1         0.3682
       3    H2      17.104182   19.179778   21.315143 H          1 MOL1         0.3682
       4    H3      17.684355   20.571707   20.654427 H          1 MOL1         0.3682
       5    C1      19.085140   19.624259   21.936595 C.3        1 MOL1         0.0252
       6    H4      18.766583   20.201094   22.809051 H          1 MOL1         0.0971
       7    H5      19.933073   20.133896   21.473404 H          1 MOL1         0.0971
       8    C2      19.508010   18.210786   22.374715 C.3        1 MOL1        -0.1369
       9    H6      18.619650   17.669837   22.727012 H          1 MOL1         0.0997
      10    H7      19.884176   17.655751   21.505105 H          1 MOL1         0.0997
      11    C3      20.571359   18.194269   23.502070 C.3        1 MOL1        -0.1329
      12    H8      20.726265   17.146215   23.793855 H          1 MOL1         0.0997
      13    H9      20.181535   18.696959   24.397999 H          1 MOL1         0.0997
      14    C4      21.948240   18.790636   23.109979 C.3        1 MOL1        -0.1305
      15    H10     22.721810   18.300697   23.717969 H          1 MOL1         0.0997
      16    H11     22.186212   18.546077   22.065325 H          1 MOL1         0.0997
      17    C5      22.060156   20.315793   23.342799 C.3        1 MOL1        -0.2320
      18    H12     21.379989   20.885450   22.701130 H          1 MOL1         0.1008
      19    H13     21.838342   20.572046   24.386895 H          1 MOL1         0.1008
      20    H14     23.079461   20.660939   23.126290 H          1 MOL1         0.1008
@<TRIPOS>BOND
    1     1     2    1
    2     1     3    1
    3     1     4    1
    4     1     5    1
    5     5     6    1
    6     5     7    1
    7     5     8    1
    8     8     9    1
    9     8    10    1
   10     8    11    1
   11    11    12    1
   12    11    13    1
   13    11    14    1
   14    14    15    1
   15    14    16    1
   16    14    17    1
   17    17    18    1
   18    17    19    1
   19    17    20    1
@<TRIPOS>SUBSTRUCTURE
       1 MOL1            1 RESIDUE      1      MOL     
@<SCITEGIC>MOL_PROPERTY
VConf Rank
SciTegic.value.IntegerValue
24

@<SCITEGIC>MOL_PROPERTY
Conf_Id
SciTegic.value.IntegerValue
61

@<SCITEGIC>MOL_PROPERTY
Delta U+W
SciTegic.value.DoubleValue
2.669

@<SCITEGIC>MOL_PROPERTY
U+W
SciTegic.value.DoubleValue
-9.108

@<SCITEGIC>MOL_PROPERTY
Grad RMS
SciTegic.value.DoubleValue
0.000000

@<SCITEGIC>MOL_PROPERTY
U
SciTegic.value.DoubleValue
48.916

@<SCITEGIC>MOL_PROPERTY
W
SciTegic.value.DoubleValue
-58.025

@<SCITEGIC>MOL_PROPERTY
W(PB)
SciTegic.value.DoubleValue
-59.935

@<SCITEGIC>MOL_PROPERTY
W(SA)
SciTegic.value.DoubleValue
1.911

@<SCITEGIC>MOL_PROPERTY
Valence
SciTegic.value.DoubleValue
3.785

@<SCITEGIC>MOL_PROPERTY
Coulomb
SciTegic.value.DoubleValue
44.716

@<SCITEGIC>MOL_PROPERTY
VdW
SciTegic.value.DoubleValue
0.415

@<SCITEGIC>MOL_PROPERTY
VdW6
SciTegic.value.DoubleValue
-4.836

@<SCITEGIC>MOL_PROPERTY
VdW12
SciTegic.value.DoubleValue
5.251

@<SCITEGIC>MOL_PROPERTY
Bond
SciTegic.value.DoubleValue
0.175

@<SCITEGIC>MOL_PROPERTY
Angle
SciTegic.value.DoubleValue
1.195

@<SCITEGIC>MOL_PROPERTY
Pdih
SciTegic.value.DoubleValue
2.415

@<SCITEGIC>MOL_PROPERTY
Idih
SciTegic.value.DoubleValue
0.000

@<SCITEGIC>MOL_PROPERTY
Tether
SciTegic.value.DoubleValue
0.000

@<TRIPOS>MOLECULE
guest-s11_confgen4.mol2 : confsearch ligand conformer 25
          20          19           1
SMALL
USER_CHARGES
 
@<TRIPOS>ATOM
       1    N1      20.687576   17.367624   20.962514 N.4        1 MOL1        -0.5919
       2    H1      21.269934   17.114886   20.157142 H          1 MOL1         0.3682
       3    H2      20.065675   16.572576   21.139829 H          1 MOL1         0.3682
       4    H3      20.098884   18.152918   20.673066 H          1 MOL1         0.3682
       5    C1      21.527823   17.706789   22.178871 C.3        1 MOL1         0.0252
       6    H4      22.210014   18.519660   21.915825 H          1 MOL1         0.0971
       7    H5      22.128593   16.822144   22.406990 H          1 MOL1         0.0971
       8    C2      20.710265   18.092871   23.429476 C.3        1 MOL1        -0.1369
       9    H6      19.850108   17.419236   23.539753 H          1 MOL1         0.0997
      10    H7      21.343785   17.917932   24.309203 H          1 MOL1         0.0997
      11    C3      20.246615   19.571894   23.465398 C.3        1 MOL1        -0.1329
      12    H8      21.123623   20.231862   23.412800 H          1 MOL1         0.0997
      13    H9      19.781094   19.760326   24.442774 H          1 MOL1         0.0997
      14    C4      19.243941   19.956973   22.352442 C.3        1 MOL1        -0.1305
      15    H10     19.736991   19.920466   21.372942 H          1 MOL1         0.0997
      16    H11     18.415468   19.235136   22.329521 H          1 MOL1         0.0997
      17    C5      18.677162   21.377115   22.564524 C.3        1 MOL1        -0.2320
      18    H12     17.975397   21.638524   21.761878 H          1 MOL1         0.1008
      19    H13     18.138597   21.449905   23.518395 H          1 MOL1         0.1008
      20    H14     19.479750   22.126191   22.567205 H          1 MOL1         0.1008
@<TRIPOS>BOND
    1     1     2    1
    2     1     3    1
    3     1     4    1
    4     1     5    1
    5     5     6    1
    6     5     7    1
    7     5     8    1
    8     8     9    1
    9     8    10    1
   10     8    11    1
   11    11    12    1
   12    11    13    1
   13    11    14    1
   14    14    15    1
   15    14    16    1
   16    14    17    1
   17    17    18    1
   18    17    19    1
   19    17    20    1
@<TRIPOS>SUBSTRUCTURE
       1 MOL1            1 RESIDUE      1      MOL     
@<SCITEGIC>MOL_PROPERTY
VConf Rank
SciTegic.value.IntegerValue
25

@<SCITEGIC>MOL_PROPERTY
Conf_Id
SciTegic.value.IntegerValue
69

@<SCITEGIC>MOL_PROPERTY
Delta U+W
SciTegic.value.DoubleValue
2.811

@<SCITEGIC>MOL_PROPERTY
U+W
SciTegic.value.DoubleValue
-8.967

@<SCITEGIC>MOL_PROPERTY
Grad RMS
SciTegic.value.DoubleValue
0.000000

@<SCITEGIC>MOL_PROPERTY
U
SciTegic.value.DoubleValue
49.216

@<SCITEGIC>MOL_PROPERTY
W
SciTegic.value.DoubleValue
-58.183

@<SCITEGIC>MOL_PROPERTY
W(PB)
SciTegic.value.DoubleValue
-60.064

@<SCITEGIC>MOL_PROPERTY
W(SA)
SciTegic.value.DoubleValue
1.881

@<SCITEGIC>MOL_PROPERTY
Valence
SciTegic.value.DoubleValue
2.929

@<SCITEGIC>MOL_PROPERTY
Coulomb
SciTegic.value.DoubleValue
46.006

@<SCITEGIC>MOL_PROPERTY
VdW
SciTegic.value.DoubleValue
0.281

@<SCITEGIC>MOL_PROPERTY
VdW6
SciTegic.value.DoubleValue
-4.909

@<SCITEGIC>MOL_PROPERTY
VdW12
SciTegic.value.DoubleValue
5.190

@<SCITEGIC>MOL_PROPERTY
Bond
SciTegic.value.DoubleValue
0.156

@<SCITEGIC>MOL_PROPERTY
Angle
SciTegic.value.DoubleValue
0.974

@<SCITEGIC>MOL_PROPERTY
Pdih
SciTegic.value.DoubleValue
1.799

@<SCITEGIC>MOL_PROPERTY
Idih
SciTegic.value.DoubleValue
0.000

@<SCITEGIC>MOL_PROPERTY
Tether
SciTegic.value.DoubleValue
0.000

@<TRIPOS>MOLECULE
guest-s11_confgen4.mol2 : confsearch ligand conformer 26
          20          19           1
SMALL
USER_CHARGES
 
@<TRIPOS>ATOM
       1    N1      19.187564   17.076866   22.737768 N.4        1 MOL1        -0.5919
       2    H1      18.650445   17.921642   22.949626 H          1 MOL1         0.3682
       3    H2      18.860533   16.730007   21.830550 H          1 MOL1         0.3682
       4    H3      18.928090   16.371971   23.435936 H          1 MOL1         0.3682
       5    C1      20.681237   17.340488   22.734024 C.3        1 MOL1         0.0252
       6    H4      21.171558   16.388438   22.513243 H          1 MOL1         0.0971
       7    H5      20.983078   17.651002   23.737923 H          1 MOL1         0.0971
       8    C2      21.139405   18.391077   21.700668 C.3        1 MOL1        -0.1369
       9    H6      22.203227   18.213771   21.493987 H          1 MOL1         0.0997
      10    H7      20.617720   18.233913   20.747274 H          1 MOL1         0.0997
      11    C3      20.985214   19.862237   22.165087 C.3        1 MOL1        -0.1329
      12    H8      21.445748   20.510048   21.406320 H          1 MOL1         0.0997
      13    H9      21.560673   20.016910   23.088335 H          1 MOL1         0.0997
      14    C4      19.522964   20.314943   22.386887 C.3        1 MOL1        -0.1305
      15    H10     18.916282   20.064563   21.505303 H          1 MOL1         0.0997
      16    H11     19.090435   19.783110   23.243581 H          1 MOL1         0.0997
      17    C5      19.432157   21.832640   22.654033 C.3        1 MOL1        -0.2320
      18    H12     19.818783   22.408134   21.802828 H          1 MOL1         0.1008
      19    H13     18.390044   22.135816   22.818761 H          1 MOL1         0.1008
      20    H14     20.008916   22.111806   23.545485 H          1 MOL1         0.1008
@<TRIPOS>BOND
    1     1     2    1
    2     1     3    1
    3     1     4    1
    4     1     5    1
    5     5     6    1
    6     5     7    1
    7     5     8    1
    8     8     9    1
    9     8    10    1
   10     8    11    1
   11    11    12    1
   12    11    13    1
   13    11    14    1
   14    14    15    1
   15    14    16    1
   16    14    17    1
   17    17    18    1
   18    17    19    1
   19    17    20    1
@<TRIPOS>SUBSTRUCTURE
       1 MOL1            1 RESIDUE      1      MOL     
@<SCITEGIC>MOL_PROPERTY
VConf Rank
SciTegic.value.IntegerValue
26

@<SCITEGIC>MOL_PROPERTY
Conf_Id
SciTegic.value.IntegerValue
26

@<SCITEGIC>MOL_PROPERTY
Delta U+W
SciTegic.value.DoubleValue
2.809

@<SCITEGIC>MOL_PROPERTY
U+W
SciTegic.value.DoubleValue
-8.969

@<SCITEGIC>MOL_PROPERTY
Grad RMS
SciTegic.value.DoubleValue
0.000000

@<SCITEGIC>MOL_PROPERTY
U
SciTegic.value.DoubleValue
49.216

@<SCITEGIC>MOL_PROPERTY
W
SciTegic.value.DoubleValue
-58.185

@<SCITEGIC>MOL_PROPERTY
W(PB)
SciTegic.value.DoubleValue
-60.088

@<SCITEGIC>MOL_PROPERTY
W(SA)
SciTegic.value.DoubleValue
1.903

@<SCITEGIC>MOL_PROPERTY
Valence
SciTegic.value.DoubleValue
2.929

@<SCITEGIC>MOL_PROPERTY
Coulomb
SciTegic.value.DoubleValue
46.006

@<SCITEGIC>MOL_PROPERTY
VdW
SciTegic.value.DoubleValue
0.281

@<SCITEGIC>MOL_PROPERTY
VdW6
SciTegic.value.DoubleValue
-4.909

@<SCITEGIC>MOL_PROPERTY
VdW12
SciTegic.value.DoubleValue
5.190

@<SCITEGIC>MOL_PROPERTY
Bond
SciTegic.value.DoubleValue
0.156

@<SCITEGIC>MOL_PROPERTY
Angle
SciTegic.value.DoubleValue
0.974

@<SCITEGIC>MOL_PROPERTY
Pdih
SciTegic.value.DoubleValue
1.799

@<SCITEGIC>MOL_PROPERTY
Idih
SciTegic.value.DoubleValue
0.000

@<SCITEGIC>MOL_PROPERTY
Tether
SciTegic.value.DoubleValue
0.000

@<TRIPOS>MOLECULE
guest-s11_confgen4.mol2 : confsearch ligand conformer 27
          20          19           1
SMALL
USER_CHARGES
 
@<TRIPOS>ATOM
       1    N1      18.348875   20.123582   21.128525 N.4        1 MOL1        -0.5919
       2    H1      18.497070   20.751771   21.923732 H          1 MOL1         0.3682
       3    H2      18.618987   20.636137   20.283324 H          1 MOL1         0.3682
       4    H3      17.339926   19.952701   21.064256 H          1 MOL1         0.3682
       5    C1      19.130806   18.833310   21.279471 C.3        1 MOL1         0.0252
       6    H4      18.902055   18.202360   20.416289 H          1 MOL1         0.0971
       7    H5      18.773246   18.322169   22.177144 H          1 MOL1         0.0971
       8    C2      20.656202   19.040412   21.372034 C.3        1 MOL1        -0.1369
       9    H6      21.145410   18.058402   21.401391 H          1 MOL1         0.0997
      10    H7      21.009658   19.523473   20.451513 H          1 MOL1         0.0997
      11    C3      21.105111   19.882580   22.595239 C.3        1 MOL1        -0.1329
      12    H8      20.746393   20.913954   22.477775 H          1 MOL1         0.0997
      13    H9      22.201877   19.948180   22.595891 H          1 MOL1         0.0997
      14    C4      20.631445   19.339533   23.967745 C.3        1 MOL1        -0.1305
      15    H10     20.984815   20.020118   24.755009 H          1 MOL1         0.0997
      16    H11     19.534670   19.355762   24.025333 H          1 MOL1         0.0997
      17    C5      21.146091   17.914677   24.273956 C.3        1 MOL1        -0.2320
      18    H12     22.240707   17.867322   24.206606 H          1 MOL1         0.1008
      19    H13     20.859075   17.612099   25.289315 H          1 MOL1         0.1008
      20    H14     20.726452   17.176850   23.578891 H          1 MOL1         0.1008
@<TRIPOS>BOND
    1     1     2    1
    2     1     3    1
    3     1     4    1
    4     1     5    1
    5     5     6    1
    6     5     7    1
    7     5     8    1
    8     8     9    1
    9     8    10    1
   10     8    11    1
   11    11    12    1
   12    11    13    1
   13    11    14    1
   14    14    15    1
   15    14    16    1
   16    14    17    1
   17    17    18    1
   18    17    19    1
   19    17    20    1
@<TRIPOS>SUBSTRUCTURE
       1 MOL1            1 RESIDUE      1      MOL     
@<SCITEGIC>MOL_PROPERTY
VConf Rank
SciTegic.value.IntegerValue
27

@<SCITEGIC>MOL_PROPERTY
Conf_Id
SciTegic.value.IntegerValue
2

@<SCITEGIC>MOL_PROPERTY
Delta U+W
SciTegic.value.DoubleValue
0.994

@<SCITEGIC>MOL_PROPERTY
U+W
SciTegic.value.DoubleValue
-10.784

@<SCITEGIC>MOL_PROPERTY
Grad RMS
SciTegic.value.DoubleValue
0.000000

@<SCITEGIC>MOL_PROPERTY
U
SciTegic.value.DoubleValue
47.562

@<SCITEGIC>MOL_PROPERTY
W
SciTegic.value.DoubleValue
-58.346

@<SCITEGIC>MOL_PROPERTY
W(PB)
SciTegic.value.DoubleValue
-60.221

@<SCITEGIC>MOL_PROPERTY
W(SA)
SciTegic.value.DoubleValue
1.875

@<SCITEGIC>MOL_PROPERTY
Valence
SciTegic.value.DoubleValue
2.149

@<SCITEGIC>MOL_PROPERTY
Coulomb
SciTegic.value.DoubleValue
45.034

@<SCITEGIC>MOL_PROPERTY
VdW
SciTegic.value.DoubleValue
0.378

@<SCITEGIC>MOL_PROPERTY
VdW6
SciTegic.value.DoubleValue
-5.599

@<SCITEGIC>MOL_PROPERTY
VdW12
SciTegic.value.DoubleValue
5.977

@<SCITEGIC>MOL_PROPERTY
Bond
SciTegic.value.DoubleValue
0.185

@<SCITEGIC>MOL_PROPERTY
Angle
SciTegic.value.DoubleValue
0.935

@<SCITEGIC>MOL_PROPERTY
Pdih
SciTegic.value.DoubleValue
1.028

@<SCITEGIC>MOL_PROPERTY
Idih
SciTegic.value.DoubleValue
0.000

@<SCITEGIC>MOL_PROPERTY
Tether
SciTegic.value.DoubleValue
0.000

@<TRIPOS>MOLECULE
guest-s11_confgen4.mol2 : confsearch ligand conformer 28
          20          19           1
SMALL
USER_CHARGES
 
@<TRIPOS>ATOM
       1    N1      17.862712   18.395208   22.244151 N.4        1 MOL1        -0.5919
       2    H1      17.680140   17.516521   21.749565 H          1 MOL1         0.3682
       3    H2      18.160502   18.151940   23.193404 H          1 MOL1         0.3682
       4    H3      16.964844   18.883429   22.326500 H          1 MOL1         0.3682
       5    C1      18.900059   19.239281   21.529693 C.3        1 MOL1         0.0252
       6    H4      19.023065   20.171130   22.087780 H          1 MOL1         0.0971
       7    H5      18.504725   19.486165   20.540619 H          1 MOL1         0.0971
       8    C2      20.266759   18.541793   21.375012 C.3        1 MOL1        -0.1369
       9    H6      20.137505   17.625198   20.784430 H          1 MOL1         0.0997
      10    H7      20.928659   19.187636   20.783990 H          1 MOL1         0.0997
      11    C3      20.950606   18.188879   22.722156 C.3        1 MOL1        -0.1329
      12    H8      21.926453   17.729145   22.513428 H          1 MOL1         0.0997
      13    H9      20.363009   17.416775   23.236736 H          1 MOL1         0.0997
      14    C4      21.153336   19.388754   23.682488 C.3        1 MOL1        -0.1305
      15    H10     20.181846   19.804854   23.981763 H          1 MOL1         0.0997
      16    H11     21.622222   19.022864   24.606674 H          1 MOL1         0.0997
      17    C5      22.036041   20.508714   23.086367 C.3        1 MOL1        -0.2320
      18    H12     21.554097   20.985165   22.223624 H          1 MOL1         0.1008
      19    H13     22.222077   21.290662   23.833920 H          1 MOL1         0.1008
      20    H14     23.008555   20.115159   22.763426 H          1 MOL1         0.1008
@<TRIPOS>BOND
    1     1     2    1
    2     1     3    1
    3     1     4    1
    4     1     5    1
    5     5     6    1
    6     5     7    1
    7     5     8    1
    8     8     9    1
    9     8    10    1
   10     8    11    1
   11    11    12    1
   12    11    13    1
   13    11    14    1
   14    14    15    1
   15    14    16    1
   16    14    17    1
   17    17    18    1
   18    17    19    1
   19    17    20    1
@<TRIPOS>SUBSTRUCTURE
       1 MOL1            1 RESIDUE      1      MOL     
@<SCITEGIC>MOL_PROPERTY
VConf Rank
SciTegic.value.IntegerValue
28

@<SCITEGIC>MOL_PROPERTY
Conf_Id
SciTegic.value.IntegerValue
1

@<SCITEGIC>MOL_PROPERTY
Delta U+W
SciTegic.value.DoubleValue
1.032

@<SCITEGIC>MOL_PROPERTY
U+W
SciTegic.value.DoubleValue
-10.746

@<SCITEGIC>MOL_PROPERTY
Grad RMS
SciTegic.value.DoubleValue
0.000000

@<SCITEGIC>MOL_PROPERTY
U
SciTegic.value.DoubleValue
47.562

@<SCITEGIC>MOL_PROPERTY
W
SciTegic.value.DoubleValue
-58.308

@<SCITEGIC>MOL_PROPERTY
W(PB)
SciTegic.value.DoubleValue
-60.184

@<SCITEGIC>MOL_PROPERTY
W(SA)
SciTegic.value.DoubleValue
1.877

@<SCITEGIC>MOL_PROPERTY
Valence
SciTegic.value.DoubleValue
2.149

@<SCITEGIC>MOL_PROPERTY
Coulomb
SciTegic.value.DoubleValue
45.035

@<SCITEGIC>MOL_PROPERTY
VdW
SciTegic.value.DoubleValue
0.378

@<SCITEGIC>MOL_PROPERTY
VdW6
SciTegic.value.DoubleValue
-5.599

@<SCITEGIC>MOL_PROPERTY
VdW12
SciTegic.value.DoubleValue
5.978

@<SCITEGIC>MOL_PROPERTY
Bond
SciTegic.value.DoubleValue
0.185

@<SCITEGIC>MOL_PROPERTY
Angle
SciTegic.value.DoubleValue
0.935

@<SCITEGIC>MOL_PROPERTY
Pdih
SciTegic.value.DoubleValue
1.028

@<SCITEGIC>MOL_PROPERTY
Idih
SciTegic.value.DoubleValue
0.000

@<SCITEGIC>MOL_PROPERTY
Tether
SciTegic.value.DoubleValue
0.000

@<TRIPOS>MOLECULE
guest-s11_confgen4.mol2 : confsearch ligand conformer 29
          20          19           1
SMALL
USER_CHARGES
 
@<TRIPOS>ATOM
       1    N1      21.289473   17.945194   24.209637 N.4        1 MOL1        -0.5919
       2    H1      22.259009   18.178966   24.445098 H          1 MOL1         0.3682
       3    H2      20.693830   18.663894   24.630784 H          1 MOL1         0.3682
       4    H3      21.072613   17.061740   24.682740 H          1 MOL1         0.3682
       5    C1      21.080506   17.847259   22.710805 C.3        1 MOL1         0.0252
       6    H4      20.040999   17.566787   22.533936 H          1 MOL1         0.0971
       7    H5      21.714664   17.035942   22.343202 H          1 MOL1         0.0971
       8    C2      21.424660   19.143844   21.947170 C.3        1 MOL1        -0.1369
       9    H6      22.472241   19.395827   22.159063 H          1 MOL1         0.0997
      10    H7      21.374165   18.953883   20.866899 H          1 MOL1         0.0997
      11    C3      20.533013   20.363840   22.303398 C.3        1 MOL1        -0.1329
      12    H8      21.094829   21.274979   22.055179 H          1 MOL1         0.0997
      13    H9      20.359407   20.413834   23.386027 H          1 MOL1         0.0997
      14    C4      19.181561   20.432786   21.546526 C.3        1 MOL1        -0.1305
      15    H10     18.687006   21.378158   21.810410 H          1 MOL1         0.0997
      16    H11     19.364949   20.479418   20.463947 H          1 MOL1         0.0997
      17    C5      18.212221   19.270035   21.853641 C.3        1 MOL1        -0.2320
      18    H12     18.096103   19.122275   22.935049 H          1 MOL1         0.1008
      19    H13     17.219210   19.480353   21.435760 H          1 MOL1         0.1008
      20    H14     18.558831   18.331747   21.404719 H          1 MOL1         0.1008
@<TRIPOS>BOND
    1     1     2    1
    2     1     3    1
    3     1     4    1
    4     1     5    1
    5     5     6    1
    6     5     7    1
    7     5     8    1
    8     8     9    1
    9     8    10    1
   10     8    11    1
   11    11    12    1
   12    11    13    1
   13    11    14    1
   14    14    15    1
   15    14    16    1
   16    14    17    1
   17    17    18    1
   18    17    19    1
   19    17    20    1
@<TRIPOS>SUBSTRUCTURE
       1 MOL1            1 RESIDUE      1      MOL     
@<SCITEGIC>MOL_PROPERTY
VConf Rank
SciTegic.value.IntegerValue
29

@<SCITEGIC>MOL_PROPERTY
Conf_Id
SciTegic.value.IntegerValue
80

@<SCITEGIC>MOL_PROPERTY
Delta U+W
SciTegic.value.DoubleValue
2.920

@<SCITEGIC>MOL_PROPERTY
U+W
SciTegic.value.DoubleValue
-8.857

@<SCITEGIC>MOL_PROPERTY
Grad RMS
SciTegic.value.DoubleValue
0.000000

@<SCITEGIC>MOL_PROPERTY
U
SciTegic.value.DoubleValue
49.434

@<SCITEGIC>MOL_PROPERTY
W
SciTegic.value.DoubleValue
-58.292

@<SCITEGIC>MOL_PROPERTY
W(PB)
SciTegic.value.DoubleValue
-60.170

@<SCITEGIC>MOL_PROPERTY
W(SA)
SciTegic.value.DoubleValue
1.879

@<SCITEGIC>MOL_PROPERTY
Valence
SciTegic.value.DoubleValue
3.798

@<SCITEGIC>MOL_PROPERTY
Coulomb
SciTegic.value.DoubleValue
45.253

@<SCITEGIC>MOL_PROPERTY
VdW
SciTegic.value.DoubleValue
0.384

@<SCITEGIC>MOL_PROPERTY
VdW6
SciTegic.value.DoubleValue
-5.595

@<SCITEGIC>MOL_PROPERTY
VdW12
SciTegic.value.DoubleValue
5.979

@<SCITEGIC>MOL_PROPERTY
Bond
SciTegic.value.DoubleValue
0.198

@<SCITEGIC>MOL_PROPERTY
Angle
SciTegic.value.DoubleValue
1.368

@<SCITEGIC>MOL_PROPERTY
Pdih
SciTegic.value.DoubleValue
2.231

@<SCITEGIC>MOL_PROPERTY
Idih
SciTegic.value.DoubleValue
0.000

@<SCITEGIC>MOL_PROPERTY
Tether
SciTegic.value.DoubleValue
0.000

@<TRIPOS>MOLECULE
guest-s11_confgen4.mol2 : confsearch ligand conformer 30
          20          19           1
SMALL
USER_CHARGES
 
@<TRIPOS>ATOM
       1    N1      21.174106   20.628152   20.917732 N.4        1 MOL1        -0.5919
       2    H1      21.124149   21.639873   21.072695 H          1 MOL1         0.3682
       3    H2      21.858231   20.474682   20.169556 H          1 MOL1         0.3682
       4    H3      20.263274   20.331953   20.555325 H          1 MOL1         0.3682
       5    C1      21.547072   19.880971   22.183582 C.3        1 MOL1         0.0252
       6    H4      22.542904   20.218906   22.482985 H          1 MOL1         0.0971
       7    H5      21.612291   18.819304   21.940425 H          1 MOL1         0.0971
       8    C2      20.564250   20.105149   23.352570 C.3        1 MOL1        -0.1369
       9    H6      20.969224   19.641951   24.261999 H          1 MOL1         0.0997
      10    H7      20.520418   21.182872   23.558507 H          1 MOL1         0.0997
      11    C3      19.124016   19.583485   23.099748 C.3        1 MOL1        -0.1329
      12    H8      18.799466   19.821494   22.078602 H          1 MOL1         0.0997
      13    H9      18.444047   20.139931   23.759622 H          1 MOL1         0.0997
      14    C4      18.912868   18.074027   23.384347 C.3        1 MOL1        -0.1305
      15    H10     19.148064   17.858642   24.436047 H          1 MOL1         0.0997
      16    H11     17.844751   17.846481   23.260663 H          1 MOL1         0.0997
      17    C5      19.724488   17.127755   22.472333 C.3        1 MOL1        -0.2320
      18    H12     20.792289   17.152972   22.719753 H          1 MOL1         0.1008
      19    H13     19.387576   16.091069   22.601567 H          1 MOL1         0.1008
      20    H14     19.601045   17.390578   21.413821 H          1 MOL1         0.1008
@<TRIPOS>BOND
    1     1     2    1
    2     1     3    1
    3     1     4    1
    4     1     5    1
    5     5     6    1
    6     5     7    1
    7     5     8    1
    8     8     9    1
    9     8    10    1
   10     8    11    1
   11    11    12    1
   12    11    13    1
   13    11    14    1
   14    14    15    1
   15    14    16    1
   16    14    17    1
   17    17    18    1
   18    17    19    1
   19    17    20    1
@<TRIPOS>SUBSTRUCTURE
       1 MOL1            1 RESIDUE      1      MOL     
@<SCITEGIC>MOL_PROPERTY
VConf Rank
SciTegic.value.IntegerValue
30

@<SCITEGIC>MOL_PROPERTY
Conf_Id
SciTegic.value.IntegerValue
65

@<SCITEGIC>MOL_PROPERTY
Delta U+W
SciTegic.value.DoubleValue
2.949

@<SCITEGIC>MOL_PROPERTY
U+W
SciTegic.value.DoubleValue
-8.829

@<SCITEGIC>MOL_PROPERTY
Grad RMS
SciTegic.value.DoubleValue
0.000000

@<SCITEGIC>MOL_PROPERTY
U
SciTegic.value.DoubleValue
49.435

@<SCITEGIC>MOL_PROPERTY
W
SciTegic.value.DoubleValue
-58.263

@<SCITEGIC>MOL_PROPERTY
W(PB)
SciTegic.value.DoubleValue
-60.125

@<SCITEGIC>MOL_PROPERTY
W(SA)
SciTegic.value.DoubleValue
1.862

@<SCITEGIC>MOL_PROPERTY
Valence
SciTegic.value.DoubleValue
3.797

@<SCITEGIC>MOL_PROPERTY
Coulomb
SciTegic.value.DoubleValue
45.253

@<SCITEGIC>MOL_PROPERTY
VdW
SciTegic.value.DoubleValue
0.384

@<SCITEGIC>MOL_PROPERTY
VdW6
SciTegic.value.DoubleValue
-5.596

@<SCITEGIC>MOL_PROPERTY
VdW12
SciTegic.value.DoubleValue
5.980

@<SCITEGIC>MOL_PROPERTY
Bond
SciTegic.value.DoubleValue
0.198

@<SCITEGIC>MOL_PROPERTY
Angle
SciTegic.value.DoubleValue
1.369

@<SCITEGIC>MOL_PROPERTY
Pdih
SciTegic.value.DoubleValue
2.230

@<SCITEGIC>MOL_PROPERTY
Idih
SciTegic.value.DoubleValue
0.000

@<SCITEGIC>MOL_PROPERTY
Tether
SciTegic.value.DoubleValue
0.000

@<TRIPOS>MOLECULE
guest-s11_confgen4.mol2 : confsearch ligand conformer 31
          20          19           1
SMALL
USER_CHARGES
 
@<TRIPOS>ATOM
       1    N1      19.447972   18.300013   24.062698 N.4        1 MOL1        -0.5919
       2    H1      18.572905   18.228954   24.592688 H          1 MOL1         0.3682
       3    H2      19.262491   17.950369   23.117674 H          1 MOL1         0.3682
       4    H3      20.114689   17.656498   24.500629 H          1 MOL1         0.3682
       5    C1      19.975021   19.721591   24.032848 C.3        1 MOL1         0.0252
       6    H4      20.148987   20.019605   25.070366 H          1 MOL1         0.0971
       7    H5      19.201883   20.373670   23.617818 H          1 MOL1         0.0971
       8    C2      21.284347   19.887835   23.235077 C.3        1 MOL1        -0.1369
       9    H6      21.787568   20.791234   23.604469 H          1 MOL1         0.0997
      10    H7      21.964320   19.055138   23.458824 H          1 MOL1         0.0997
      11    C3      21.108873   20.038078   21.699989 C.3        1 MOL1        -0.1329
      12    H8      22.106756   20.202436   21.270174 H          1 MOL1         0.0997
      13    H9      20.539352   20.950667   21.475727 H          1 MOL1         0.0997
      14    C4      20.470937   18.822636   20.980089 C.3        1 MOL1        -0.1305
      15    H10     20.939352   18.716161   19.991398 H          1 MOL1         0.0997
      16    H11     20.701834   17.892990   21.517405 H          1 MOL1         0.0997
      17    C5      18.946102   18.974530   20.766485 C.3        1 MOL1        -0.2320
      18    H12     18.407504   19.157129   21.702522 H          1 MOL1         0.1008
      19    H13     18.732502   19.816407   20.094964 H          1 MOL1         0.1008
      20    H14     18.528032   18.070279   20.305261 H          1 MOL1         0.1008
@<TRIPOS>BOND
    1     1     2    1
    2     1     3    1
    3     1     4    1
    4     1     5    1
    5     5     6    1
    6     5     7    1
    7     5     8    1
    8     8     9    1
    9     8    10    1
   10     8    11    1
   11    11    12    1
   12    11    13    1
   13    11    14    1
   14    14    15    1
   15    14    16    1
   16    14    17    1
   17    17    18    1
   18    17    19    1
   19    17    20    1
@<TRIPOS>SUBSTRUCTURE
       1 MOL1            1 RESIDUE      1      MOL     
@<SCITEGIC>MOL_PROPERTY
VConf Rank
SciTegic.value.IntegerValue
31

@<SCITEGIC>MOL_PROPERTY
Conf_Id
SciTegic.value.IntegerValue
77

@<SCITEGIC>MOL_PROPERTY
Delta U+W
SciTegic.value.DoubleValue
5.366

@<SCITEGIC>MOL_PROPERTY
U+W
SciTegic.value.DoubleValue
-6.412

@<SCITEGIC>MOL_PROPERTY
Grad RMS
SciTegic.value.DoubleValue
0.000000

@<SCITEGIC>MOL_PROPERTY
U
SciTegic.value.DoubleValue
51.542

@<SCITEGIC>MOL_PROPERTY
W
SciTegic.value.DoubleValue
-57.954

@<SCITEGIC>MOL_PROPERTY
W(PB)
SciTegic.value.DoubleValue
-59.811

@<SCITEGIC>MOL_PROPERTY
W(SA)
SciTegic.value.DoubleValue
1.857

@<SCITEGIC>MOL_PROPERTY
Valence
SciTegic.value.DoubleValue
5.347

@<SCITEGIC>MOL_PROPERTY
Coulomb
SciTegic.value.DoubleValue
45.870

@<SCITEGIC>MOL_PROPERTY
VdW
SciTegic.value.DoubleValue
0.325

@<SCITEGIC>MOL_PROPERTY
VdW6
SciTegic.value.DoubleValue
-6.161

@<SCITEGIC>MOL_PROPERTY
VdW12
SciTegic.value.DoubleValue
6.486

@<SCITEGIC>MOL_PROPERTY
Bond
SciTegic.value.DoubleValue
0.201

@<SCITEGIC>MOL_PROPERTY
Angle
SciTegic.value.DoubleValue
1.484

@<SCITEGIC>MOL_PROPERTY
Pdih
SciTegic.value.DoubleValue
3.662

@<SCITEGIC>MOL_PROPERTY
Idih
SciTegic.value.DoubleValue
0.000

@<SCITEGIC>MOL_PROPERTY
Tether
SciTegic.value.DoubleValue
0.000

@<TRIPOS>MOLECULE
guest-s11_confgen4.mol2 : confsearch ligand conformer 32
          20          19           1
SMALL
USER_CHARGES
 
@<TRIPOS>ATOM
       1    N1      21.948833   18.490804   23.202964 N.4        1 MOL1        -0.5919
       2    H1      22.367872   17.659071   22.775139 H          1 MOL1         0.3682
       3    H2      21.869819   19.203274   22.470932 H          1 MOL1         0.3682
       4    H3      22.618534   18.838376   23.897498 H          1 MOL1         0.3682
       5    C1      20.599971   18.184606   23.824553 C.3        1 MOL1         0.0252
       6    H4      20.229969   19.085541   24.321158 H          1 MOL1         0.0971
       7    H5      20.766436   17.420315   24.588535 H          1 MOL1         0.0971
       8    C2      19.548925   17.671170   22.819518 C.3        1 MOL1        -0.1369
       9    H6      20.012456   16.951171   22.132096 H          1 MOL1         0.0997
      10    H7      18.797335   17.103294   23.383824 H          1 MOL1         0.0997
      11    C3      18.805733   18.773918   22.018595 C.3        1 MOL1        -0.1329
      12    H8      18.232457   19.412903   22.704537 H          1 MOL1         0.0997
      13    H9      18.056639   18.273795   21.389101 H          1 MOL1         0.0997
      14    C4      19.698571   19.646505   21.099927 C.3        1 MOL1        -0.1305
      15    H10     20.572029   19.075332   20.757734 H          1 MOL1         0.0997
      16    H11     19.131347   19.891219   20.190734 H          1 MOL1         0.0997
      17    C5      20.131184   20.977587   21.759386 C.3        1 MOL1        -0.2320
      18    H12     20.805222   21.536380   21.097114 H          1 MOL1         0.1008
      19    H13     19.257710   21.613586   21.953989 H          1 MOL1         0.1008
      20    H14     20.644834   20.825023   22.714625 H          1 MOL1         0.1008
@<TRIPOS>BOND
    1     1     2    1
    2     1     3    1
    3     1     4    1
    4     1     5    1
    5     5     6    1
    6     5     7    1
    7     5     8    1
    8     8     9    1
    9     8    10    1
   10     8    11    1
   11    11    12    1
   12    11    13    1
   13    11    14    1
   14    14    15    1
   15    14    16    1
   16    14    17    1
   17    17    18    1
   18    17    19    1
   19    17    20    1
@<TRIPOS>SUBSTRUCTURE
       1 MOL1            1 RESIDUE      1      MOL     
@<SCITEGIC>MOL_PROPERTY
VConf Rank
SciTegic.value.IntegerValue
32

@<SCITEGIC>MOL_PROPERTY
Conf_Id
SciTegic.value.IntegerValue
67

@<SCITEGIC>MOL_PROPERTY
Delta U+W
SciTegic.value.DoubleValue
5.353

@<SCITEGIC>MOL_PROPERTY
U+W
SciTegic.value.DoubleValue
-6.425

@<SCITEGIC>MOL_PROPERTY
Grad RMS
SciTegic.value.DoubleValue
0.000000

@<SCITEGIC>MOL_PROPERTY
U
SciTegic.value.DoubleValue
51.541

@<SCITEGIC>MOL_PROPERTY
W
SciTegic.value.DoubleValue
-57.966

@<SCITEGIC>MOL_PROPERTY
W(PB)
SciTegic.value.DoubleValue
-59.821

@<SCITEGIC>MOL_PROPERTY
W(SA)
SciTegic.value.DoubleValue
1.855

@<SCITEGIC>MOL_PROPERTY
Valence
SciTegic.value.DoubleValue
5.347

@<SCITEGIC>MOL_PROPERTY
Coulomb
SciTegic.value.DoubleValue
45.870

@<SCITEGIC>MOL_PROPERTY
VdW
SciTegic.value.DoubleValue
0.325

@<SCITEGIC>MOL_PROPERTY
VdW6
SciTegic.value.DoubleValue
-6.161

@<SCITEGIC>MOL_PROPERTY
VdW12
SciTegic.value.DoubleValue
6.486

@<SCITEGIC>MOL_PROPERTY
Bond
SciTegic.value.DoubleValue
0.201

@<SCITEGIC>MOL_PROPERTY
Angle
SciTegic.value.DoubleValue
1.485

@<SCITEGIC>MOL_PROPERTY
Pdih
SciTegic.value.DoubleValue
3.662

@<SCITEGIC>MOL_PROPERTY
Idih
SciTegic.value.DoubleValue
0.000

@<SCITEGIC>MOL_PROPERTY
Tether
SciTegic.value.DoubleValue
0.000

@<TRIPOS>MOLECULE
guest-s11_confgen4.mol2 : confsearch ligand conformer 33
          20          19           1
SMALL
USER_CHARGES
 
@<TRIPOS>ATOM
       1    N1      20.947385   21.266675   20.200138 N.4        1 MOL1        -0.5919
       2    H1      21.343422   20.611650   19.518607 H          1 MOL1         0.3682
       3    H2      20.480490   22.006291   19.664809 H          1 MOL1         0.3682
       4    H3      21.734286   21.705338   20.688759 H          1 MOL1         0.3682
       5    C1      19.996347   20.580033   21.159585 C.3        1 MOL1         0.0252
       6    H4      19.170758   20.163426   20.576182 H          1 MOL1         0.0971
       7    H5      19.591089   21.339086   21.834211 H          1 MOL1         0.0971
       8    C2      20.666302   19.462948   21.979674 C.3        1 MOL1        -0.1369
       9    H6      21.085750   18.711119   21.297849 H          1 MOL1         0.0997
      10    H7      21.504642   19.882717   22.551554 H          1 MOL1         0.0997
      11    C3      19.664156   18.789733   22.943633 C.3        1 MOL1        -0.1329
      12    H8      18.824178   18.375483   22.368633 H          1 MOL1         0.0997
      13    H9      19.242626   19.545655   23.620898 H          1 MOL1         0.0997
      14    C4      20.325926   17.666078   23.772486 C.3        1 MOL1        -0.1305
      15    H10     20.747152   16.906603   23.098829 H          1 MOL1         0.0997
      16    H11     21.165474   18.076612   24.350991 H          1 MOL1         0.0997
      17    C5      19.320977   16.996345   24.734003 C.3        1 MOL1        -0.2320
      18    H12     18.486028   16.545741   24.181707 H          1 MOL1         0.1008
      19    H13     19.809086   16.201811   25.313233 H          1 MOL1         0.1008
      20    H14     18.907717   17.724843   25.443735 H          1 MOL1         0.1008
@<TRIPOS>BOND
    1     1     2    1
    2     1     3    1
    3     1     4    1
    4     1     5    1
    5     5     6    1
    6     5     7    1
    7     5     8    1
    8     8     9    1
    9     8    10    1
   10     8    11    1
   11    11    12    1
   12    11    13    1
   13    11    14    1
   14    14    15    1
   15    14    16    1
   16    14    17    1
   17    17    18    1
   18    17    19    1
   19    17    20    1
@<TRIPOS>SUBSTRUCTURE
       1 MOL1            1 RESIDUE      1      MOL     
@<SCITEGIC>MOL_PROPERTY
VConf Rank
SciTegic.value.IntegerValue
33

@<SCITEGIC>MOL_PROPERTY
Conf_Id
SciTegic.value.IntegerValue
72

@<SCITEGIC>MOL_PROPERTY
Delta U+W
SciTegic.value.DoubleValue
0.000

@<SCITEGIC>MOL_PROPERTY
U+W
SciTegic.value.DoubleValue
-11.778

@<SCITEGIC>MOL_PROPERTY
Grad RMS
SciTegic.value.DoubleValue
0.000000

@<SCITEGIC>MOL_PROPERTY
U
SciTegic.value.DoubleValue
45.772

@<SCITEGIC>MOL_PROPERTY
W
SciTegic.value.DoubleValue
-57.550

@<SCITEGIC>MOL_PROPERTY
W(PB)
SciTegic.value.DoubleValue
-59.511

@<SCITEGIC>MOL_PROPERTY
W(SA)
SciTegic.value.DoubleValue
1.961

@<SCITEGIC>MOL_PROPERTY
Valence
SciTegic.value.DoubleValue
1.299

@<SCITEGIC>MOL_PROPERTY
Coulomb
SciTegic.value.DoubleValue
44.177

@<SCITEGIC>MOL_PROPERTY
VdW
SciTegic.value.DoubleValue
0.297

@<SCITEGIC>MOL_PROPERTY
VdW6
SciTegic.value.DoubleValue
-3.490

@<SCITEGIC>MOL_PROPERTY
VdW12
SciTegic.value.DoubleValue
3.786

@<SCITEGIC>MOL_PROPERTY
Bond
SciTegic.value.DoubleValue
0.096

@<SCITEGIC>MOL_PROPERTY
Angle
SciTegic.value.DoubleValue
0.381

@<SCITEGIC>MOL_PROPERTY
Pdih
SciTegic.value.DoubleValue
0.822

@<SCITEGIC>MOL_PROPERTY
Idih
SciTegic.value.DoubleValue
0.000

@<SCITEGIC>MOL_PROPERTY
Tether
SciTegic.value.DoubleValue
0.000

@<TRIPOS>MOLECULE
guest-s11_confgen4.mol2 : confsearch ligand conformer 34
          20          19           1
SMALL
USER_CHARGES
 
@<TRIPOS>ATOM
       1    N1      19.999709   21.923848   21.264904 N.4        1 MOL1        -0.5919
       2    H1      19.225421   21.649777   20.651960 H          1 MOL1         0.3682
       3    H2      19.590389   22.413146   22.067032 H          1 MOL1         0.3682
       4    H3      20.557242   22.613017   20.749360 H          1 MOL1         0.3682
       5    C1      20.832734   20.732440   21.692910 C.3        1 MOL1         0.0252
       6    H4      21.652965   21.100420   22.315248 H          1 MOL1         0.0971
       7    H5      21.260311   20.279202   20.794434 H          1 MOL1         0.0971
       8    C2      20.025535   19.677619   22.470761 C.3        1 MOL1        -0.1369
       9    H6      19.584904   20.140847   23.363551 H          1 MOL1         0.0997
      10    H7      19.195337   19.328678   21.843801 H          1 MOL1         0.0997
      11    C3      20.914641   18.482746   22.888968 C.3        1 MOL1        -0.1329
      12    H8      21.780590   18.860464   23.450396 H          1 MOL1         0.0997
      13    H9      21.318638   17.990643   21.993306 H          1 MOL1         0.0997
      14    C4      20.177100   17.440235   23.764111 C.3        1 MOL1        -0.1305
      15    H10     20.902440   16.686502   24.101316 H          1 MOL1         0.0997
      16    H11     19.791913   17.923418   24.672980 H          1 MOL1         0.0997
      17    C5      19.022249   16.724917   23.026435 C.3        1 MOL1        -0.2320
      18    H12     19.375832   16.256904   22.098557 H          1 MOL1         0.1008
      19    H13     18.593828   15.935664   23.657694 H          1 MOL1         0.1008
      20    H14     18.212249   17.420408   22.774216 H          1 MOL1         0.1008
@<TRIPOS>BOND
    1     1     2    1
    2     1     3    1
    3     1     4    1
    4     1     5    1
    5     5     6    1
    6     5     7    1
    7     5     8    1
    8     8     9    1
    9     8    10    1
   10     8    11    1
   11    11    12    1
   12    11    13    1
   13    11    14    1
   14    14    15    1
   15    14    16    1
   16    14    17    1
   17    17    18    1
   18    17    19    1
   19    17    20    1
@<TRIPOS>SUBSTRUCTURE
       1 MOL1            1 RESIDUE      1      MOL     
@<SCITEGIC>MOL_PROPERTY
VConf Rank
SciTegic.value.IntegerValue
34

@<SCITEGIC>MOL_PROPERTY
Conf_Id
SciTegic.value.IntegerValue
42

@<SCITEGIC>MOL_PROPERTY
Delta U+W
SciTegic.value.DoubleValue
0.508

@<SCITEGIC>MOL_PROPERTY
U+W
SciTegic.value.DoubleValue
-11.270

@<SCITEGIC>MOL_PROPERTY
Grad RMS
SciTegic.value.DoubleValue
0.000000

@<SCITEGIC>MOL_PROPERTY
U
SciTegic.value.DoubleValue
46.486

@<SCITEGIC>MOL_PROPERTY
W
SciTegic.value.DoubleValue
-57.756

@<SCITEGIC>MOL_PROPERTY
W(PB)
SciTegic.value.DoubleValue
-59.705

@<SCITEGIC>MOL_PROPERTY
W(SA)
SciTegic.value.DoubleValue
1.949

@<SCITEGIC>MOL_PROPERTY
Valence
SciTegic.value.DoubleValue
1.806

@<SCITEGIC>MOL_PROPERTY
Coulomb
SciTegic.value.DoubleValue
44.248

@<SCITEGIC>MOL_PROPERTY
VdW
SciTegic.value.DoubleValue
0.433

@<SCITEGIC>MOL_PROPERTY
VdW6
SciTegic.value.DoubleValue
-4.089

@<SCITEGIC>MOL_PROPERTY
VdW12
SciTegic.value.DoubleValue
4.522

@<SCITEGIC>MOL_PROPERTY
Bond
SciTegic.value.DoubleValue
0.131

@<SCITEGIC>MOL_PROPERTY
Angle
SciTegic.value.DoubleValue
0.628

@<SCITEGIC>MOL_PROPERTY
Pdih
SciTegic.value.DoubleValue
1.047

@<SCITEGIC>MOL_PROPERTY
Idih
SciTegic.value.DoubleValue
0.000

@<SCITEGIC>MOL_PROPERTY
Tether
SciTegic.value.DoubleValue
0.000

@<TRIPOS>MOLECULE
guest-s11_confgen4.mol2 : confsearch ligand conformer 35
          20          19           1
SMALL
USER_CHARGES
 
@<TRIPOS>ATOM
       1    N1      22.354320   17.934707   20.767399 N.4        1 MOL1        -0.5919
       2    H1      23.070305   18.633630   20.989294 H          1 MOL1         0.3682
       3    H2      22.489452   17.149691   21.412242 H          1 MOL1         0.3682
       4    H3      22.561993   17.585129   19.825991 H          1 MOL1         0.3682
       5    C1      20.954760   18.508702   20.858749 C.3        1 MOL1         0.0252
       6    H4      20.248282   17.721513   20.581748 H          1 MOL1         0.0971
       7    H5      20.872974   19.316470   20.126413 H          1 MOL1         0.0971
       8    C2      20.610252   19.043619   22.260336 C.3        1 MOL1        -0.1369
       9    H6      20.712858   18.229624   22.989000 H          1 MOL1         0.0997
      10    H7      21.331558   19.822577   22.540969 H          1 MOL1         0.0997
      11    C3      19.175818   19.621011   22.306708 C.3        1 MOL1        -0.1329
      12    H8      18.450530   18.829844   22.070913 H          1 MOL1         0.0997
      13    H9      19.070342   20.380632   21.519564 H          1 MOL1         0.0997
      14    C4      18.813395   20.266998   23.666127 C.3        1 MOL1        -0.1305
      15    H10     19.522353   21.075097   23.894669 H          1 MOL1         0.0997
      16    H11     17.825635   20.741021   23.579111 H          1 MOL1         0.0997
      17    C5      18.780147   19.258159   24.836884 C.3        1 MOL1        -0.2320
      18    H12     19.775485   18.845201   25.042287 H          1 MOL1         0.1008
      19    H13     18.430674   19.747162   25.755414 H          1 MOL1         0.1008
      20    H14     18.099208   18.424628   24.621102 H          1 MOL1         0.1008
@<TRIPOS>BOND
    1     1     2    1
    2     1     3    1
    3     1     4    1
    4     1     5    1
    5     5     6    1
    6     5     7    1
    7     5     8    1
    8     8     9    1
    9     8    10    1
   10     8    11    1
   11    11    12    1
   12    11    13    1
   13    11    14    1
   14    14    15    1
   15    14    16    1
   16    14    17    1
   17    17    18    1
   18    17    19    1
   19    17    20    1
@<TRIPOS>SUBSTRUCTURE
       1 MOL1            1 RESIDUE      1      MOL     
@<SCITEGIC>MOL_PROPERTY
VConf Rank
SciTegic.value.IntegerValue
35

@<SCITEGIC>MOL_PROPERTY
Conf_Id
SciTegic.value.IntegerValue
41

@<SCITEGIC>MOL_PROPERTY
Delta U+W
SciTegic.value.DoubleValue
0.515

@<SCITEGIC>MOL_PROPERTY
U+W
SciTegic.value.DoubleValue
-11.263

@<SCITEGIC>MOL_PROPERTY
Grad RMS
SciTegic.value.DoubleValue
0.000000

@<SCITEGIC>MOL_PROPERTY
U
SciTegic.value.DoubleValue
46.486

@<SCITEGIC>MOL_PROPERTY
W
SciTegic.value.DoubleValue
-57.749

@<SCITEGIC>MOL_PROPERTY
W(PB)
SciTegic.value.DoubleValue
-59.685

@<SCITEGIC>MOL_PROPERTY
W(SA)
SciTegic.value.DoubleValue
1.936

@<SCITEGIC>MOL_PROPERTY
Valence
SciTegic.value.DoubleValue
1.806

@<SCITEGIC>MOL_PROPERTY
Coulomb
SciTegic.value.DoubleValue
44.248

@<SCITEGIC>MOL_PROPERTY
VdW
SciTegic.value.DoubleValue
0.433

@<SCITEGIC>MOL_PROPERTY
VdW6
SciTegic.value.DoubleValue
-4.089

@<SCITEGIC>MOL_PROPERTY
VdW12
SciTegic.value.DoubleValue
4.522

@<SCITEGIC>MOL_PROPERTY
Bond
SciTegic.value.DoubleValue
0.131

@<SCITEGIC>MOL_PROPERTY
Angle
SciTegic.value.DoubleValue
0.628

@<SCITEGIC>MOL_PROPERTY
Pdih
SciTegic.value.DoubleValue
1.047

@<SCITEGIC>MOL_PROPERTY
Idih
SciTegic.value.DoubleValue
0.000

@<SCITEGIC>MOL_PROPERTY
Tether
SciTegic.value.DoubleValue
0.000

@<TRIPOS>MOLECULE
guest-s11_confgen4.mol2 : confsearch ligand conformer 36
          20          19           1
SMALL
USER_CHARGES
 
@<TRIPOS>ATOM
       1    N1      19.905121   20.998280   24.486485 N.4        1 MOL1        -0.5919
       2    H1      20.071129   21.314502   25.447706 H          1 MOL1         0.3682
       3    H2      20.656921   21.388077   23.910469 H          1 MOL1         0.3682
       4    H3      19.030106   21.432813   24.177092 H          1 MOL1         0.3682
       5    C1      19.848289   19.485556   24.393745 C.3        1 MOL1         0.0252
       6    H4      19.055973   19.142943   25.064902 H          1 MOL1         0.0971
       7    H5      20.798612   19.086545   24.758597 H          1 MOL1         0.0971
       8    C2      19.575320   18.956588   22.971933 C.3        1 MOL1        -0.1369
       9    H6      19.436835   17.870155   23.035916 H          1 MOL1         0.0997
      10    H7      18.629117   19.372758   22.601538 H          1 MOL1         0.0997
      11    C3      20.722600   19.280896   21.982141 C.3        1 MOL1        -0.1329
      12    H8      21.661371   18.842055   22.347648 H          1 MOL1         0.0997
      13    H9      20.881320   20.366881   21.949713 H          1 MOL1         0.0997
      14    C4      20.449668   18.789392   20.539604 C.3        1 MOL1        -0.1305
      15    H10     19.518454   19.236440   20.164300 H          1 MOL1         0.0997
      16    H11     21.251995   19.157219   19.884688 H          1 MOL1         0.0997
      17    C5      20.374491   17.250272   20.416230 C.3        1 MOL1        -0.2320
      18    H12     19.509509   16.843377   20.954293 H          1 MOL1         0.1008
      19    H13     20.276120   16.953941   19.363871 H          1 MOL1         0.1008
      20    H14     21.281579   16.777061   20.814059 H          1 MOL1         0.1008
@<TRIPOS>BOND
    1     1     2    1
    2     1     3    1
    3     1     4    1
    4     1     5    1
    5     5     6    1
    6     5     7    1
    7     5     8    1
    8     8     9    1
    9     8    10    1
   10     8    11    1
   11    11    12    1
   12    11    13    1
   13    11    14    1
   14    14    15    1
   15    14    16    1
   16    14    17    1
   17    17    18    1
   18    17    19    1
   19    17    20    1
@<TRIPOS>SUBSTRUCTURE
       1 MOL1            1 RESIDUE      1      MOL     
@<SCITEGIC>MOL_PROPERTY
VConf Rank
SciTegic.value.IntegerValue
36

@<SCITEGIC>MOL_PROPERTY
Conf_Id
SciTegic.value.IntegerValue
33

@<SCITEGIC>MOL_PROPERTY
Delta U+W
SciTegic.value.DoubleValue
0.703

@<SCITEGIC>MOL_PROPERTY
U+W
SciTegic.value.DoubleValue
-11.075

@<SCITEGIC>MOL_PROPERTY
Grad RMS
SciTegic.value.DoubleValue
0.000000

@<SCITEGIC>MOL_PROPERTY
U
SciTegic.value.DoubleValue
47.080

@<SCITEGIC>MOL_PROPERTY
W
SciTegic.value.DoubleValue
-58.154

@<SCITEGIC>MOL_PROPERTY
W(PB)
SciTegic.value.DoubleValue
-60.053

@<SCITEGIC>MOL_PROPERTY
W(SA)
SciTegic.value.DoubleValue
1.899

@<SCITEGIC>MOL_PROPERTY
Valence
SciTegic.value.DoubleValue
1.943

@<SCITEGIC>MOL_PROPERTY
Coulomb
SciTegic.value.DoubleValue
44.572

@<SCITEGIC>MOL_PROPERTY
VdW
SciTegic.value.DoubleValue
0.565

@<SCITEGIC>MOL_PROPERTY
VdW6
SciTegic.value.DoubleValue
-4.575

@<SCITEGIC>MOL_PROPERTY
VdW12
SciTegic.value.DoubleValue
5.139

@<SCITEGIC>MOL_PROPERTY
Bond
SciTegic.value.DoubleValue
0.158

@<SCITEGIC>MOL_PROPERTY
Angle
SciTegic.value.DoubleValue
0.700

@<SCITEGIC>MOL_PROPERTY
Pdih
SciTegic.value.DoubleValue
1.085

@<SCITEGIC>MOL_PROPERTY
Idih
SciTegic.value.DoubleValue
0.000

@<SCITEGIC>MOL_PROPERTY
Tether
SciTegic.value.DoubleValue
0.000

@<TRIPOS>MOLECULE
guest-s11_confgen4.mol2 : confsearch ligand conformer 37
          20          19           1
SMALL
USER_CHARGES
 
@<TRIPOS>ATOM
       1    N1      22.323030   19.760769   24.049594 N.4        1 MOL1        -0.5919
       2    H1      22.732217   20.135106   24.912113 H          1 MOL1         0.3682
       3    H2      22.971259   19.049799   23.696729 H          1 MOL1         0.3682
       4    H3      22.312390   20.525508   23.368419 H          1 MOL1         0.3682
       5    C1      20.936142   19.193829   24.284713 C.3        1 MOL1         0.0252
       6    H4      20.304410   19.993656   24.680484 H          1 MOL1         0.0971
       7    H5      21.021774   18.418156   25.050610 H          1 MOL1         0.0971
       8    C2      20.284229   18.594101   23.023285 C.3        1 MOL1        -0.1369
       9    H6      20.929237   17.803150   22.618251 H          1 MOL1         0.0997
      10    H7      19.346302   18.111063   23.324243 H          1 MOL1         0.0997
      11    C3      19.999162   19.658065   21.933407 C.3        1 MOL1        -0.1329
      12    H8      20.935446   20.163482   21.662235 H          1 MOL1         0.0997
      13    H9      19.335196   20.434061   22.338929 H          1 MOL1         0.0997
      14    C4      19.377567   19.068426   20.643864 C.3        1 MOL1        -0.1305
      15    H10     19.314656   19.863751   19.887927 H          1 MOL1         0.0997
      16    H11     20.044609   18.301043   20.226677 H          1 MOL1         0.0997
      17    C5      17.967103   18.472243   20.855813 C.3        1 MOL1        -0.2320
      18    H12     17.288631   19.211002   21.301814 H          1 MOL1         0.1008
      19    H13     17.535563   18.157118   19.896951 H          1 MOL1         0.1008
      20    H14     17.994527   17.591408   21.508996 H          1 MOL1         0.1008
@<TRIPOS>BOND
    1     1     2    1
    2     1     3    1
    3     1     4    1
    4     1     5    1
    5     5     6    1
    6     5     7    1
    7     5     8    1
    8     8     9    1
    9     8    10    1
   10     8    11    1
   11    11    12    1
   12    11    13    1
   13    11    14    1
   14    14    15    1
   15    14    16    1
   16    14    17    1
   17    17    18    1
   18    17    19    1
   19    17    20    1
@<TRIPOS>SUBSTRUCTURE
       1 MOL1            1 RESIDUE      1      MOL     
@<SCITEGIC>MOL_PROPERTY
VConf Rank
SciTegic.value.IntegerValue
37

@<SCITEGIC>MOL_PROPERTY
Conf_Id
SciTegic.value.IntegerValue
24

@<SCITEGIC>MOL_PROPERTY
Delta U+W
SciTegic.value.DoubleValue
0.847

@<SCITEGIC>MOL_PROPERTY
U+W
SciTegic.value.DoubleValue
-10.931

@<SCITEGIC>MOL_PROPERTY
Grad RMS
SciTegic.value.DoubleValue
0.000000

@<SCITEGIC>MOL_PROPERTY
U
SciTegic.value.DoubleValue
47.080

@<SCITEGIC>MOL_PROPERTY
W
SciTegic.value.DoubleValue
-58.011

@<SCITEGIC>MOL_PROPERTY
W(PB)
SciTegic.value.DoubleValue
-59.914

@<SCITEGIC>MOL_PROPERTY
W(SA)
SciTegic.value.DoubleValue
1.903

@<SCITEGIC>MOL_PROPERTY
Valence
SciTegic.value.DoubleValue
1.943

@<SCITEGIC>MOL_PROPERTY
Coulomb
SciTegic.value.DoubleValue
44.572

@<SCITEGIC>MOL_PROPERTY
VdW
SciTegic.value.DoubleValue
0.565

@<SCITEGIC>MOL_PROPERTY
VdW6
SciTegic.value.DoubleValue
-4.575

@<SCITEGIC>MOL_PROPERTY
VdW12
SciTegic.value.DoubleValue
5.140

@<SCITEGIC>MOL_PROPERTY
Bond
SciTegic.value.DoubleValue
0.158

@<SCITEGIC>MOL_PROPERTY
Angle
SciTegic.value.DoubleValue
0.700

@<SCITEGIC>MOL_PROPERTY
Pdih
SciTegic.value.DoubleValue
1.085

@<SCITEGIC>MOL_PROPERTY
Idih
SciTegic.value.DoubleValue
0.000

@<SCITEGIC>MOL_PROPERTY
Tether
SciTegic.value.DoubleValue
0.000

@<TRIPOS>MOLECULE
guest-s11_confgen4.mol2 : confsearch ligand conformer 38
          20          19           1
SMALL
USER_CHARGES
 
@<TRIPOS>ATOM
       1    N1      21.635630   17.554351   20.894459 N.4        1 MOL1        -0.5919
       2    H1      21.613254   17.494043   19.871057 H          1 MOL1         0.3682
       3    H2      22.496307   18.051393   21.144272 H          1 MOL1         0.3682
       4    H3      21.728090   16.596274   21.246381 H          1 MOL1         0.3682
       5    C1      20.403341   18.243256   21.445096 C.3        1 MOL1         0.0252
       6    H4      19.525908   17.679123   21.117614 H          1 MOL1         0.0971
       7    H5      20.353099   19.243042   21.005906 H          1 MOL1         0.0971
       8    C2      20.405863   18.350983   22.981655 C.3        1 MOL1        -0.1369
       9    H6      20.498469   17.344963   23.411896 H          1 MOL1         0.0997
      10    H7      21.291090   18.909273   23.312016 H          1 MOL1         0.0997
      11    C3      19.121966   19.015808   23.538083 C.3        1 MOL1        -0.1329
      12    H8      19.184718   19.049398   24.634531 H          1 MOL1         0.0997
      13    H9      18.259410   18.376328   23.304514 H          1 MOL1         0.0997
      14    C4      18.843725   20.443669   23.002344 C.3        1 MOL1        -0.1305
      15    H10     18.672550   20.415482   21.917594 H          1 MOL1         0.0997
      16    H11     17.906133   20.807464   23.445577 H          1 MOL1         0.0997
      17    C5      19.970476   21.451393   23.324732 C.3        1 MOL1        -0.2320
      18    H12     19.684177   22.462570   23.007780 H          1 MOL1         0.1008
      19    H13     20.175388   21.483136   24.402683 H          1 MOL1         0.1008
      20    H14     20.901686   21.194341   22.804723 H          1 MOL1         0.1008
@<TRIPOS>BOND
    1     1     2    1
    2     1     3    1
    3     1     4    1
    4     1     5    1
    5     5     6    1
    6     5     7    1
    7     5     8    1
    8     8     9    1
    9     8    10    1
   10     8    11    1
   11    11    12    1
   12    11    13    1
   13    11    14    1
   14    14    15    1
   15    14    16    1
   16    14    17    1
   17    17    18    1
   18    17    19    1
   19    17    20    1
@<TRIPOS>SUBSTRUCTURE
       1 MOL1            1 RESIDUE      1      MOL     
@<SCITEGIC>MOL_PROPERTY
VConf Rank
SciTegic.value.IntegerValue
38

@<SCITEGIC>MOL_PROPERTY
Conf_Id
SciTegic.value.IntegerValue
64

@<SCITEGIC>MOL_PROPERTY
Delta U+W
SciTegic.value.DoubleValue
0.707

@<SCITEGIC>MOL_PROPERTY
U+W
SciTegic.value.DoubleValue
-11.070

@<SCITEGIC>MOL_PROPERTY
Grad RMS
SciTegic.value.DoubleValue
0.000000

@<SCITEGIC>MOL_PROPERTY
U
SciTegic.value.DoubleValue
47.077

@<SCITEGIC>MOL_PROPERTY
W
SciTegic.value.DoubleValue
-58.148

@<SCITEGIC>MOL_PROPERTY
W(PB)
SciTegic.value.DoubleValue
-60.054

@<SCITEGIC>MOL_PROPERTY
W(SA)
SciTegic.value.DoubleValue
1.906

@<SCITEGIC>MOL_PROPERTY
Valence
SciTegic.value.DoubleValue
2.039

@<SCITEGIC>MOL_PROPERTY
Coulomb
SciTegic.value.DoubleValue
44.655

@<SCITEGIC>MOL_PROPERTY
VdW
SciTegic.value.DoubleValue
0.383

@<SCITEGIC>MOL_PROPERTY
VdW6
SciTegic.value.DoubleValue
-4.912

@<SCITEGIC>MOL_PROPERTY
VdW12
SciTegic.value.DoubleValue
5.295

@<SCITEGIC>MOL_PROPERTY
Bond
SciTegic.value.DoubleValue
0.159

@<SCITEGIC>MOL_PROPERTY
Angle
SciTegic.value.DoubleValue
0.856

@<SCITEGIC>MOL_PROPERTY
Pdih
SciTegic.value.DoubleValue
1.024

@<SCITEGIC>MOL_PROPERTY
Idih
SciTegic.value.DoubleValue
0.000

@<SCITEGIC>MOL_PROPERTY
Tether
SciTegic.value.DoubleValue
0.000

@<TRIPOS>MOLECULE
guest-s11_confgen4.mol2 : confsearch ligand conformer 39
          20          19           1
SMALL
USER_CHARGES
 
@<TRIPOS>ATOM
       1    N1      18.673493   20.448803   20.678210 N.4        1 MOL1        -0.5919
       2    H1      17.887416   20.960609   21.091062 H          1 MOL1         0.3682
       3    H2      19.426040   21.126841   20.522775 H          1 MOL1         0.3682
       4    H3      18.366479   20.127997   19.753919 H          1 MOL1         0.3682
       5    C1      19.121299   19.296297   21.554296 C.3        1 MOL1         0.0252
       6    H4      19.936750   18.780826   21.040181 H          1 MOL1         0.0971
       7    H5      18.283106   18.601294   21.653207 H          1 MOL1         0.0971
       8    C2      19.589906   19.744645   22.951440 C.3        1 MOL1        -0.1369
       9    H6      20.425369   20.449463   22.853007 H          1 MOL1         0.0997
      10    H7      18.777727   20.297032   23.442351 H          1 MOL1         0.0997
      11    C3      20.002968   18.556134   23.855220 C.3        1 MOL1        -0.1329
      12    H8      19.120819   17.928920   24.044715 H          1 MOL1         0.0997
      13    H9      20.313185   18.944711   24.835034 H          1 MOL1         0.0997
      14    C4      21.134571   17.665025   23.281963 C.3        1 MOL1        -0.1305
      15    H10     21.331420   16.849252   23.991643 H          1 MOL1         0.0997
      16    H11     20.803374   17.181857   22.352644 H          1 MOL1         0.0997
      17    C5      22.452012   18.432364   23.027901 C.3        1 MOL1        -0.2320
      18    H12     22.793892   18.942174   23.937949 H          1 MOL1         0.1008
      19    H13     23.244603   17.741537   22.712524 H          1 MOL1         0.1008
      20    H14     22.334785   19.182849   22.236279 H          1 MOL1         0.1008
@<TRIPOS>BOND
    1     1     2    1
    2     1     3    1
    3     1     4    1
    4     1     5    1
    5     5     6    1
    6     5     7    1
    7     5     8    1
    8     8     9    1
    9     8    10    1
   10     8    11    1
   11    11    12    1
   12    11    13    1
   13    11    14    1
   14    14    15    1
   15    14    16    1
   16    14    17    1
   17    17    18    1
   18    17    19    1
   19    17    20    1
@<TRIPOS>SUBSTRUCTURE
       1 MOL1            1 RESIDUE      1      MOL     
@<SCITEGIC>MOL_PROPERTY
VConf Rank
SciTegic.value.IntegerValue
39

@<SCITEGIC>MOL_PROPERTY
Conf_Id
SciTegic.value.IntegerValue
22

@<SCITEGIC>MOL_PROPERTY
Delta U+W
SciTegic.value.DoubleValue
0.731

@<SCITEGIC>MOL_PROPERTY
U+W
SciTegic.value.DoubleValue
-11.047

@<SCITEGIC>MOL_PROPERTY
Grad RMS
SciTegic.value.DoubleValue
0.000000

@<SCITEGIC>MOL_PROPERTY
U
SciTegic.value.DoubleValue
47.078

@<SCITEGIC>MOL_PROPERTY
W
SciTegic.value.DoubleValue
-58.125

@<SCITEGIC>MOL_PROPERTY
W(PB)
SciTegic.value.DoubleValue
-60.031

@<SCITEGIC>MOL_PROPERTY
W(SA)
SciTegic.value.DoubleValue
1.906

@<SCITEGIC>MOL_PROPERTY
Valence
SciTegic.value.DoubleValue
2.039

@<SCITEGIC>MOL_PROPERTY
Coulomb
SciTegic.value.DoubleValue
44.655

@<SCITEGIC>MOL_PROPERTY
VdW
SciTegic.value.DoubleValue
0.383

@<SCITEGIC>MOL_PROPERTY
VdW6
SciTegic.value.DoubleValue
-4.913

@<SCITEGIC>MOL_PROPERTY
VdW12
SciTegic.value.DoubleValue
5.296

@<SCITEGIC>MOL_PROPERTY
Bond
SciTegic.value.DoubleValue
0.159

@<SCITEGIC>MOL_PROPERTY
Angle
SciTegic.value.DoubleValue
0.856

@<SCITEGIC>MOL_PROPERTY
Pdih
SciTegic.value.DoubleValue
1.024

@<SCITEGIC>MOL_PROPERTY
Idih
SciTegic.value.DoubleValue
0.000

@<SCITEGIC>MOL_PROPERTY
Tether
SciTegic.value.DoubleValue
0.000

@<TRIPOS>MOLECULE
guest-s11_confgen4.mol2 : confsearch ligand conformer 40
          20          19           1
SMALL
USER_CHARGES
 
@<TRIPOS>ATOM
       1    N1      19.364103   19.930240   19.971726 N.4        1 MOL1        -0.5919
       2    H1      18.478250   20.409347   20.161607 H          1 MOL1         0.3682
       3    H2      19.988847   20.614757   19.534183 H          1 MOL1         0.3682
       4    H3      19.168743   19.212611   19.265797 H          1 MOL1         0.3682
       5    C1      19.966943   19.335210   21.228362 C.3        1 MOL1         0.0252
       6    H4      20.889635   18.819213   20.949467 H          1 MOL1         0.0971
       7    H5      19.260730   18.598612   21.618175 H          1 MOL1         0.0971
       8    C2      20.267051   20.387097   22.311016 C.3        1 MOL1        -0.1369
       9    H6      20.880469   21.183515   21.869020 H          1 MOL1         0.0997
      10    H7      19.329150   20.859940   22.631245 H          1 MOL1         0.0997
      11    C3      21.012967   19.821990   23.546401 C.3        1 MOL1        -0.1329
      12    H8      21.252798   20.669841   24.203045 H          1 MOL1         0.0997
      13    H9      21.980601   19.398416   23.243718 H          1 MOL1         0.0997
      14    C4      20.210965   18.785777   24.376008 C.3        1 MOL1        -0.1305
      15    H10     20.556228   18.837120   25.418246 H          1 MOL1         0.0997
      16    H11     19.146086   19.056529   24.397624 H          1 MOL1         0.0997
      17    C5      20.383796   17.326582   23.892568 C.3        1 MOL1        -0.2320
      18    H12     19.977022   17.170335   22.888080 H          1 MOL1         0.1008
      19    H13     21.443067   17.038856   23.879816 H          1 MOL1         0.1008
      20    H14     19.861156   16.636626   24.567693 H          1 MOL1         0.1008
@<TRIPOS>BOND
    1     1     2    1
    2     1     3    1
    3     1     4    1
    4     1     5    1
    5     5     6    1
    6     5     7    1
    7     5     8    1
    8     8     9    1
    9     8    10    1
   10     8    11    1
   11    11    12    1
   12    11    13    1
   13    11    14    1
   14    14    15    1
   15    14    16    1
   16    14    17    1
   17    17    18    1
   18    17    19    1
   19    17    20    1
@<TRIPOS>SUBSTRUCTURE
       1 MOL1            1 RESIDUE      1      MOL     
@<SCITEGIC>MOL_PROPERTY
VConf Rank
SciTegic.value.IntegerValue
40

@<SCITEGIC>MOL_PROPERTY
Conf_Id
SciTegic.value.IntegerValue
61

@<SCITEGIC>MOL_PROPERTY
Delta U+W
SciTegic.value.DoubleValue
2.669

@<SCITEGIC>MOL_PROPERTY
U+W
SciTegic.value.DoubleValue
-9.108

@<SCITEGIC>MOL_PROPERTY
Grad RMS
SciTegic.value.DoubleValue
0.000000

@<SCITEGIC>MOL_PROPERTY
U
SciTegic.value.DoubleValue
48.916

@<SCITEGIC>MOL_PROPERTY
W
SciTegic.value.DoubleValue
-58.025

@<SCITEGIC>MOL_PROPERTY
W(PB)
SciTegic.value.DoubleValue
-59.935

@<SCITEGIC>MOL_PROPERTY
W(SA)
SciTegic.value.DoubleValue
1.911

@<SCITEGIC>MOL_PROPERTY
Valence
SciTegic.value.DoubleValue
3.785

@<SCITEGIC>MOL_PROPERTY
Coulomb
SciTegic.value.DoubleValue
44.716

@<SCITEGIC>MOL_PROPERTY
VdW
SciTegic.value.DoubleValue
0.415

@<SCITEGIC>MOL_PROPERTY
VdW6
SciTegic.value.DoubleValue
-4.836

@<SCITEGIC>MOL_PROPERTY
VdW12
SciTegic.value.DoubleValue
5.251

@<SCITEGIC>MOL_PROPERTY
Bond
SciTegic.value.DoubleValue
0.175

@<SCITEGIC>MOL_PROPERTY
Angle
SciTegic.value.DoubleValue
1.195

@<SCITEGIC>MOL_PROPERTY
Pdih
SciTegic.value.DoubleValue
2.415

@<SCITEGIC>MOL_PROPERTY
Idih
SciTegic.value.DoubleValue
0.000

@<SCITEGIC>MOL_PROPERTY
Tether
SciTegic.value.DoubleValue
0.000

@<TRIPOS>MOLECULE
guest-s11_confgen4.mol2 : confsearch ligand conformer 41
          20          19           1
SMALL
USER_CHARGES
 
@<TRIPOS>ATOM
       1    N1      20.077229   19.517670   20.179529 N.4        1 MOL1        -0.5919
       2    H1      19.476295   19.796167   19.396611 H          1 MOL1         0.3682
       3    H2      20.999990   19.309134   19.785414 H          1 MOL1         0.3682
       4    H3      19.701607   18.640729   20.549540 H          1 MOL1         0.3682
       5    C1      20.150481   20.596777   21.242889 C.3        1 MOL1         0.0252
       6    H4      19.136046   20.818806   21.584886 H          1 MOL1         0.0971
       7    H5      20.547652   21.493347   20.759177 H          1 MOL1         0.0971
       8    C2      21.044246   20.241353   22.449675 C.3        1 MOL1        -0.1369
       9    H6      21.969669   19.761520   22.104467 H          1 MOL1         0.0997
      10    H7      21.352610   21.182081   22.924874 H          1 MOL1         0.0997
      11    C3      20.353166   19.368951   23.529069 C.3        1 MOL1        -0.1329
      12    H8      19.461730   19.889858   23.905188 H          1 MOL1         0.0997
      13    H9      21.037131   19.278195   24.384309 H          1 MOL1         0.0997
      14    C4      19.959280   17.951241   23.052349 C.3        1 MOL1        -0.1305
      15    H10     19.163283   18.015091   22.299912 H          1 MOL1         0.0997
      16    H11     20.821780   17.463734   22.576563 H          1 MOL1         0.0997
      17    C5      19.460386   17.076353   24.222262 C.3        1 MOL1        -0.2320
      18    H12     19.176037   16.077717   23.866000 H          1 MOL1         0.1008
      19    H13     20.241042   16.951481   24.983973 H          1 MOL1         0.1008
      20    H14     18.581635   17.524825   24.703864 H          1 MOL1         0.1008
@<TRIPOS>BOND
    1     1     2    1
    2     1     3    1
    3     1     4    1
    4     1     5    1
    5     5     6    1
    6     5     7    1
    7     5     8    1
    8     8     9    1
    9     8    10    1
   10     8    11    1
   11    11    12    1
   12    11    13    1
   13    11    14    1
   14    14    15    1
   15    14    16    1
   16    14    17    1
   17    17    18    1
   18    17    19    1
   19    17    20    1
@<TRIPOS>SUBSTRUCTURE
       1 MOL1            1 RESIDUE      1      MOL     
@<SCITEGIC>MOL_PROPERTY
VConf Rank
SciTegic.value.IntegerValue
41

@<SCITEGIC>MOL_PROPERTY
Conf_Id
SciTegic.value.IntegerValue
69

@<SCITEGIC>MOL_PROPERTY
Delta U+W
SciTegic.value.DoubleValue
2.811

@<SCITEGIC>MOL_PROPERTY
U+W
SciTegic.value.DoubleValue
-8.967

@<SCITEGIC>MOL_PROPERTY
Grad RMS
SciTegic.value.DoubleValue
0.000000

@<SCITEGIC>MOL_PROPERTY
U
SciTegic.value.DoubleValue
49.216

@<SCITEGIC>MOL_PROPERTY
W
SciTegic.value.DoubleValue
-58.183

@<SCITEGIC>MOL_PROPERTY
W(PB)
SciTegic.value.DoubleValue
-60.064

@<SCITEGIC>MOL_PROPERTY
W(SA)
SciTegic.value.DoubleValue
1.881

@<SCITEGIC>MOL_PROPERTY
Valence
SciTegic.value.DoubleValue
2.929

@<SCITEGIC>MOL_PROPERTY
Coulomb
SciTegic.value.DoubleValue
46.006

@<SCITEGIC>MOL_PROPERTY
VdW
SciTegic.value.DoubleValue
0.281

@<SCITEGIC>MOL_PROPERTY
VdW6
SciTegic.value.DoubleValue
-4.909

@<SCITEGIC>MOL_PROPERTY
VdW12
SciTegic.value.DoubleValue
5.190

@<SCITEGIC>MOL_PROPERTY
Bond
SciTegic.value.DoubleValue
0.156

@<SCITEGIC>MOL_PROPERTY
Angle
SciTegic.value.DoubleValue
0.974

@<SCITEGIC>MOL_PROPERTY
Pdih
SciTegic.value.DoubleValue
1.799

@<SCITEGIC>MOL_PROPERTY
Idih
SciTegic.value.DoubleValue
0.000

@<SCITEGIC>MOL_PROPERTY
Tether
SciTegic.value.DoubleValue
0.000

@<TRIPOS>MOLECULE
guest-s11_confgen4.mol2 : confsearch ligand conformer 42
          20          19           1
SMALL
USER_CHARGES
 
@<TRIPOS>ATOM
       1    N1      21.183453   17.157624   22.342570 N.4        1 MOL1        -0.5919
       2    H1      20.420601   17.372670   21.695390 H          1 MOL1         0.3682
       3    H2      22.061293   17.295769   21.832064 H          1 MOL1         0.3682
       4    H3      21.120990   16.157404   22.560057 H          1 MOL1         0.3682
       5    C1      21.121355   18.009870   23.595722 C.3        1 MOL1         0.0252
       6    H4      21.959190   17.705601   24.228976 H          1 MOL1         0.0971
       7    H5      20.194604   17.779939   24.128267 H          1 MOL1         0.0971
       8    C2      21.214478   19.528505   23.337742 C.3        1 MOL1        -0.1369
       9    H6      21.565567   20.003192   24.263636 H          1 MOL1         0.0997
      10    H7      21.984695   19.735681   22.582985 H          1 MOL1         0.0997
      11    C3      19.873985   20.198362   22.940070 C.3        1 MOL1        -0.1329
      12    H8      20.034504   21.284566   22.896787 H          1 MOL1         0.0997
      13    H9      19.131720   20.030942   23.732837 H          1 MOL1         0.0997
      14    C4      19.297314   19.724682   21.585304 C.3        1 MOL1        -0.1305
      15    H10     20.070625   19.788666   20.806948 H          1 MOL1         0.0997
      16    H11     18.988852   18.674013   21.654574 H          1 MOL1         0.0997
      17    C5      18.076032   20.568305   21.161293 C.3        1 MOL1        -0.2320
      18    H12     18.347739   21.625095   21.040493 H          1 MOL1         0.1008
      19    H13     17.673178   20.213585   20.203726 H          1 MOL1         0.1008
      20    H14     17.273899   20.504914   21.908177 H          1 MOL1         0.1008
@<TRIPOS>BOND
    1     1     2    1
    2     1     3    1
    3     1     4    1
    4     1     5    1
    5     5     6    1
    6     5     7    1
    7     5     8    1
    8     8     9    1
    9     8    10    1
   10     8    11    1
   11    11    12    1
   12    11    13    1
   13    11    14    1
   14    14    15    1
   15    14    16    1
   16    14    17    1
   17    17    18    1
   18    17    19    1
   19    17    20    1
@<TRIPOS>SUBSTRUCTURE
       1 MOL1            1 RESIDUE      1      MOL     
@<SCITEGIC>MOL_PROPERTY
VConf Rank
SciTegic.value.IntegerValue
42

@<SCITEGIC>MOL_PROPERTY
Conf_Id
SciTegic.value.IntegerValue
26

@<SCITEGIC>MOL_PROPERTY
Delta U+W
SciTegic.value.DoubleValue
2.809

@<SCITEGIC>MOL_PROPERTY
U+W
SciTegic.value.DoubleValue
-8.969

@<SCITEGIC>MOL_PROPERTY
Grad RMS
SciTegic.value.DoubleValue
0.000000

@<SCITEGIC>MOL_PROPERTY
U
SciTegic.value.DoubleValue
49.216

@<SCITEGIC>MOL_PROPERTY
W
SciTegic.value.DoubleValue
-58.185

@<SCITEGIC>MOL_PROPERTY
W(PB)
SciTegic.value.DoubleValue
-60.088

@<SCITEGIC>MOL_PROPERTY
W(SA)
SciTegic.value.DoubleValue
1.903

@<SCITEGIC>MOL_PROPERTY
Valence
SciTegic.value.DoubleValue
2.929

@<SCITEGIC>MOL_PROPERTY
Coulomb
SciTegic.value.DoubleValue
46.006

@<SCITEGIC>MOL_PROPERTY
VdW
SciTegic.value.DoubleValue
0.281

@<SCITEGIC>MOL_PROPERTY
VdW6
SciTegic.value.DoubleValue
-4.909

@<SCITEGIC>MOL_PROPERTY
VdW12
SciTegic.value.DoubleValue
5.190

@<SCITEGIC>MOL_PROPERTY
Bond
SciTegic.value.DoubleValue
0.156

@<SCITEGIC>MOL_PROPERTY
Angle
SciTegic.value.DoubleValue
0.974

@<SCITEGIC>MOL_PROPERTY
Pdih
SciTegic.value.DoubleValue
1.799

@<SCITEGIC>MOL_PROPERTY
Idih
SciTegic.value.DoubleValue
0.000

@<SCITEGIC>MOL_PROPERTY
Tether
SciTegic.value.DoubleValue
0.000

@<TRIPOS>MOLECULE
guest-s11_confgen4.mol2 : confsearch ligand conformer 43
          20          19           1
SMALL
USER_CHARGES
 
@<TRIPOS>ATOM
       1    N1      21.208309   21.329973   22.254495 N.4        1 MOL1        -0.5919
       2    H1      20.201714   21.485031   22.146506 H          1 MOL1         0.3682
       3    H2      21.495251   21.796129   23.120751 H          1 MOL1         0.3682
       4    H3      21.672633   21.821050   21.483421 H          1 MOL1         0.3682
       5    C1      21.550033   19.852812   22.269302 C.3        1 MOL1         0.0252
       6    H4      22.636348   19.763151   22.355262 H          1 MOL1         0.0971
       7    H5      21.249543   19.424746   21.309408 H          1 MOL1         0.0971
       8    C2      20.879686   19.073234   23.418731 C.3        1 MOL1        -0.1369
       9    H6      21.239617   18.036587   23.400208 H          1 MOL1         0.0997
      10    H7      21.214547   19.489226   24.378135 H          1 MOL1         0.0997
      11    C3      19.329071   19.087020   23.369750 C.3        1 MOL1        -0.1329
      12    H8      18.968729   20.108265   23.552559 H          1 MOL1         0.0997
      13    H9      18.943729   18.482889   24.202658 H          1 MOL1         0.0997
      14    C4      18.715696   18.567975   22.044082 C.3        1 MOL1        -0.1305
      15    H10     17.621260   18.642438   22.111289 H          1 MOL1         0.0997
      16    H11     19.011137   19.216811   21.208485 H          1 MOL1         0.0997
      17    C5      19.096106   17.104471   21.724258 C.3        1 MOL1        -0.2320
      18    H12     18.825963   16.436365   22.552279 H          1 MOL1         0.1008
      19    H13     18.567823   16.757144   20.826947 H          1 MOL1         0.1008
      20    H14     20.171677   17.000078   21.534914 H          1 MOL1         0.1008
@<TRIPOS>BOND
    1     1     2    1
    2     1     3    1
    3     1     4    1
    4     1     5    1
    5     5     6    1
    6     5     7    1
    7     5     8    1
    8     8     9    1
    9     8    10    1
   10     8    11    1
   11    11    12    1
   12    11    13    1
   13    11    14    1
   14    14    15    1
   15    14    16    1
   16    14    17    1
   17    17    18    1
   18    17    19    1
   19    17    20    1
@<TRIPOS>SUBSTRUCTURE
       1 MOL1            1 RESIDUE      1      MOL     
@<SCITEGIC>MOL_PROPERTY
VConf Rank
SciTegic.value.IntegerValue
43

@<SCITEGIC>MOL_PROPERTY
Conf_Id
SciTegic.value.IntegerValue
2

@<SCITEGIC>MOL_PROPERTY
Delta U+W
SciTegic.value.DoubleValue
0.994

@<SCITEGIC>MOL_PROPERTY
U+W
SciTegic.value.DoubleValue
-10.784

@<SCITEGIC>MOL_PROPERTY
Grad RMS
SciTegic.value.DoubleValue
0.000000

@<SCITEGIC>MOL_PROPERTY
U
SciTegic.value.DoubleValue
47.562

@<SCITEGIC>MOL_PROPERTY
W
SciTegic.value.DoubleValue
-58.346

@<SCITEGIC>MOL_PROPERTY
W(PB)
SciTegic.value.DoubleValue
-60.221

@<SCITEGIC>MOL_PROPERTY
W(SA)
SciTegic.value.DoubleValue
1.875

@<SCITEGIC>MOL_PROPERTY
Valence
SciTegic.value.DoubleValue
2.149

@<SCITEGIC>MOL_PROPERTY
Coulomb
SciTegic.value.DoubleValue
45.034

@<SCITEGIC>MOL_PROPERTY
VdW
SciTegic.value.DoubleValue
0.378

@<SCITEGIC>MOL_PROPERTY
VdW6
SciTegic.value.DoubleValue
-5.599

@<SCITEGIC>MOL_PROPERTY
VdW12
SciTegic.value.DoubleValue
5.977

@<SCITEGIC>MOL_PROPERTY
Bond
SciTegic.value.DoubleValue
0.185

@<SCITEGIC>MOL_PROPERTY
Angle
SciTegic.value.DoubleValue
0.935

@<SCITEGIC>MOL_PROPERTY
Pdih
SciTegic.value.DoubleValue
1.028

@<SCITEGIC>MOL_PROPERTY
Idih
SciTegic.value.DoubleValue
0.000

@<SCITEGIC>MOL_PROPERTY
Tether
SciTegic.value.DoubleValue
0.000

@<TRIPOS>MOLECULE
guest-s11_confgen4.mol2 : confsearch ligand conformer 44
          20          19           1
SMALL
USER_CHARGES
 
@<TRIPOS>ATOM
       1    N1      21.633208   17.179540   22.778923 N.4        1 MOL1        -0.5919
       2    H1      22.615093   17.292560   22.508430 H          1 MOL1         0.3682
       3    H2      21.518005   17.625709   23.693582 H          1 MOL1         0.3682
       4    H3      21.474000   16.175419   22.911969 H          1 MOL1         0.3682
       5    C1      20.692439   17.767527   21.745374 C.3        1 MOL1         0.0252
       6    H4      19.666766   17.585172   22.076543 H          1 MOL1         0.0971
       7    H5      20.847281   17.226350   20.808005 H          1 MOL1         0.0971
       8    C2      20.900598   19.276622   21.505398 C.3        1 MOL1        -0.1369
       9    H6      21.922591   19.444801   21.140864 H          1 MOL1         0.0997
      10    H7      20.236431   19.600728   20.693998 H          1 MOL1         0.0997
      11    C3      20.655535   20.154433   22.760939 C.3        1 MOL1        -0.1329
      12    H8      20.793755   21.209464   22.487069 H          1 MOL1         0.0997
      13    H9      21.428047   19.939164   23.511334 H          1 MOL1         0.0997
      14    C4      19.259959   19.981249   23.413175 C.3        1 MOL1        -0.1305
      15    H10     19.137444   18.954054   23.782440 H          1 MOL1         0.0997
      16    H11     19.204271   20.628876   24.299361 H          1 MOL1         0.0997
      17    C5      18.091893   20.334414   22.464631 C.3        1 MOL1        -0.2320
      18    H12     18.036442   19.639149   21.617793 H          1 MOL1         0.1008
      19    H13     17.133993   20.281819   22.998062 H          1 MOL1         0.1008
      20    H14     18.199459   21.352226   22.067836 H          1 MOL1         0.1008
@<TRIPOS>BOND
    1     1     2    1
    2     1     3    1
    3     1     4    1
    4     1     5    1
    5     5     6    1
    6     5     7    1
    7     5     8    1
    8     8     9    1
    9     8    10    1
   10     8    11    1
   11    11    12    1
   12    11    13    1
   13    11    14    1
   14    14    15    1
   15    14    16    1
   16    14    17    1
   17    17    18    1
   18    17    19    1
   19    17    20    1
@<TRIPOS>SUBSTRUCTURE
       1 MOL1            1 RESIDUE      1      MOL     
@<SCITEGIC>MOL_PROPERTY
VConf Rank
SciTegic.value.IntegerValue
44

@<SCITEGIC>MOL_PROPERTY
Conf_Id
SciTegic.value.IntegerValue
1

@<SCITEGIC>MOL_PROPERTY
Delta U+W
SciTegic.value.DoubleValue
1.032

@<SCITEGIC>MOL_PROPERTY
U+W
SciTegic.value.DoubleValue
-10.746

@<SCITEGIC>MOL_PROPERTY
Grad RMS
SciTegic.value.DoubleValue
0.000000

@<SCITEGIC>MOL_PROPERTY
U
SciTegic.value.DoubleValue
47.562

@<SCITEGIC>MOL_PROPERTY
W
SciTegic.value.DoubleValue
-58.308

@<SCITEGIC>MOL_PROPERTY
W(PB)
SciTegic.value.DoubleValue
-60.184

@<SCITEGIC>MOL_PROPERTY
W(SA)
SciTegic.value.DoubleValue
1.877

@<SCITEGIC>MOL_PROPERTY
Valence
SciTegic.value.DoubleValue
2.149

@<SCITEGIC>MOL_PROPERTY
Coulomb
SciTegic.value.DoubleValue
45.035

@<SCITEGIC>MOL_PROPERTY
VdW
SciTegic.value.DoubleValue
0.378

@<SCITEGIC>MOL_PROPERTY
VdW6
SciTegic.value.DoubleValue
-5.599

@<SCITEGIC>MOL_PROPERTY
VdW12
SciTegic.value.DoubleValue
5.978

@<SCITEGIC>MOL_PROPERTY
Bond
SciTegic.value.DoubleValue
0.185

@<SCITEGIC>MOL_PROPERTY
Angle
SciTegic.value.DoubleValue
0.935

@<SCITEGIC>MOL_PROPERTY
Pdih
SciTegic.value.DoubleValue
1.028

@<SCITEGIC>MOL_PROPERTY
Idih
SciTegic.value.DoubleValue
0.000

@<SCITEGIC>MOL_PROPERTY
Tether
SciTegic.value.DoubleValue
0.000

@<TRIPOS>MOLECULE
guest-s11_confgen4.mol2 : confsearch ligand conformer 45
          20          19           1
SMALL
USER_CHARGES
 
@<TRIPOS>ATOM
       1    N1      19.248641   21.148894   21.896244 N.4        1 MOL1        -0.5919
       2    H1      19.681854   21.712578   21.158221 H          1 MOL1         0.3682
       3    H2      18.728131   20.396356   21.436418 H          1 MOL1         0.3682
       4    H3      18.559471   21.747755   22.362888 H          1 MOL1         0.3682
       5    C1      20.277057   20.608804   22.871139 C.3        1 MOL1         0.0252
       6    H4      19.746982   20.048109   23.642607 H          1 MOL1         0.0971
       7    H5      20.758011   21.466306   23.349572 H          1 MOL1         0.0971
       8    C2      21.357801   19.725636   22.211804 C.3        1 MOL1        -0.1369
       9    H6      21.858998   20.321871   21.437772 H          1 MOL1         0.0997
      10    H7      22.131478   19.483929   22.952494 H          1 MOL1         0.0997
      11    C3      20.824433   18.416441   21.570051 C.3        1 MOL1        -0.1329
      12    H8      21.545317   18.099529   20.803685 H          1 MOL1         0.0997
      13    H9      19.887492   18.603563   21.029818 H          1 MOL1         0.0997
      14    C4      20.641785   17.230676   22.552209 C.3        1 MOL1        -0.1305
      15    H10     20.352695   16.343707   21.971124 H          1 MOL1         0.0997
      16    H11     21.605466   16.984858   23.019834 H          1 MOL1         0.0997
      17    C5      19.581949   17.463352   23.651546 C.3        1 MOL1        -0.2320
      18    H12     18.636429   17.822079   23.224853 H          1 MOL1         0.1008
      19    H13     19.374466   16.527293   24.186031 H          1 MOL1         0.1008
      20    H14     19.930832   18.189024   24.395679 H          1 MOL1         0.1008
@<TRIPOS>BOND
    1     1     2    1
    2     1     3    1
    3     1     4    1
    4     1     5    1
    5     5     6    1
    6     5     7    1
    7     5     8    1
    8     8     9    1
    9     8    10    1
   10     8    11    1
   11    11    12    1
   12    11    13    1
   13    11    14    1
   14    14    15    1
   15    14    16    1
   16    14    17    1
   17    17    18    1
   18    17    19    1
   19    17    20    1
@<TRIPOS>SUBSTRUCTURE
       1 MOL1            1 RESIDUE      1      MOL     
@<SCITEGIC>MOL_PROPERTY
VConf Rank
SciTegic.value.IntegerValue
45

@<SCITEGIC>MOL_PROPERTY
Conf_Id
SciTegic.value.IntegerValue
80

@<SCITEGIC>MOL_PROPERTY
Delta U+W
SciTegic.value.DoubleValue
2.920

@<SCITEGIC>MOL_PROPERTY
U+W
SciTegic.value.DoubleValue
-8.857

@<SCITEGIC>MOL_PROPERTY
Grad RMS
SciTegic.value.DoubleValue
0.000000

@<SCITEGIC>MOL_PROPERTY
U
SciTegic.value.DoubleValue
49.434

@<SCITEGIC>MOL_PROPERTY
W
SciTegic.value.DoubleValue
-58.292

@<SCITEGIC>MOL_PROPERTY
W(PB)
SciTegic.value.DoubleValue
-60.170

@<SCITEGIC>MOL_PROPERTY
W(SA)
SciTegic.value.DoubleValue
1.879

@<SCITEGIC>MOL_PROPERTY
Valence
SciTegic.value.DoubleValue
3.798

@<SCITEGIC>MOL_PROPERTY
Coulomb
SciTegic.value.DoubleValue
45.253

@<SCITEGIC>MOL_PROPERTY
VdW
SciTegic.value.DoubleValue
0.384

@<SCITEGIC>MOL_PROPERTY
VdW6
SciTegic.value.DoubleValue
-5.595

@<SCITEGIC>MOL_PROPERTY
VdW12
SciTegic.value.DoubleValue
5.979

@<SCITEGIC>MOL_PROPERTY
Bond
SciTegic.value.DoubleValue
0.198

@<SCITEGIC>MOL_PROPERTY
Angle
SciTegic.value.DoubleValue
1.368

@<SCITEGIC>MOL_PROPERTY
Pdih
SciTegic.value.DoubleValue
2.231

@<SCITEGIC>MOL_PROPERTY
Idih
SciTegic.value.DoubleValue
0.000

@<SCITEGIC>MOL_PROPERTY
Tether
SciTegic.value.DoubleValue
0.000

@<TRIPOS>MOLECULE
guest-s11_confgen4.mol2 : confsearch ligand conformer 46
          20          19           1
SMALL
USER_CHARGES
 
@<TRIPOS>ATOM
       1    N1      18.586338   18.715986   20.867486 N.4        1 MOL1        -0.5919
       2    H1      17.609680   18.964328   21.053380 H          1 MOL1         0.3682
       3    H2      18.650461   18.484653   19.870632 H          1 MOL1         0.3682
       4    H3      18.784376   17.856153   21.387249 H          1 MOL1         0.3682
       5    C1      19.535686   19.835754   21.247772 C.3        1 MOL1         0.0252
       6    H4      19.290244   20.700095   20.624718 H          1 MOL1         0.0971
       7    H5      20.548607   19.517743   20.996022 H          1 MOL1         0.0971
       8    C2      19.454509   20.244355   22.734104 C.3        1 MOL1        -0.1369
       9    H6      20.069643   21.138721   22.899445 H          1 MOL1         0.0997
      10    H7      18.420866   20.547154   22.947909 H          1 MOL1         0.0997
      11    C3      19.869914   19.134226   23.736789 C.3        1 MOL1        -0.1329
      12    H8      19.463093   18.162340   23.429127 H          1 MOL1         0.0997
      13    H9      19.394528   19.357671   24.701934 H          1 MOL1         0.0997
      14    C4      21.395065   19.014183   23.988875 C.3        1 MOL1        -0.1305
      15    H10     21.780552   19.962664   24.388333 H          1 MOL1         0.0997
      16    H11     21.555768   18.266208   24.777960 H          1 MOL1         0.0997
      17    C5      22.221638   18.604951   22.749829 C.3        1 MOL1        -0.2320
      18    H12     22.279809   19.421753   22.020787 H          1 MOL1         0.1008
      19    H13     23.250801   18.358902   23.041740 H          1 MOL1         0.1008
      20    H14     21.792951   17.722407   22.257788 H          1 MOL1         0.1008
@<TRIPOS>BOND
    1     1     2    1
    2     1     3    1
    3     1     4    1
    4     1     5    1
    5     5     6    1
    6     5     7    1
    7     5     8    1
    8     8     9    1
    9     8    10    1
   10     8    11    1
   11    11    12    1
   12    11    13    1
   13    11    14    1
   14    14    15    1
   15    14    16    1
   16    14    17    1
   17    17    18    1
   18    17    19    1
   19    17    20    1
@<TRIPOS>SUBSTRUCTURE
       1 MOL1            1 RESIDUE      1      MOL     
@<SCITEGIC>MOL_PROPERTY
VConf Rank
SciTegic.value.IntegerValue
46

@<SCITEGIC>MOL_PROPERTY
Conf_Id
SciTegic.value.IntegerValue
65

@<SCITEGIC>MOL_PROPERTY
Delta U+W
SciTegic.value.DoubleValue
2.949

@<SCITEGIC>MOL_PROPERTY
U+W
SciTegic.value.DoubleValue
-8.829

@<SCITEGIC>MOL_PROPERTY
Grad RMS
SciTegic.value.DoubleValue
0.000000

@<SCITEGIC>MOL_PROPERTY
U
SciTegic.value.DoubleValue
49.435

@<SCITEGIC>MOL_PROPERTY
W
SciTegic.value.DoubleValue
-58.263

@<SCITEGIC>MOL_PROPERTY
W(PB)
SciTegic.value.DoubleValue
-60.125

@<SCITEGIC>MOL_PROPERTY
W(SA)
SciTegic.value.DoubleValue
1.862

@<SCITEGIC>MOL_PROPERTY
Valence
SciTegic.value.DoubleValue
3.797

@<SCITEGIC>MOL_PROPERTY
Coulomb
SciTegic.value.DoubleValue
45.253

@<SCITEGIC>MOL_PROPERTY
VdW
SciTegic.value.DoubleValue
0.384

@<SCITEGIC>MOL_PROPERTY
VdW6
SciTegic.value.DoubleValue
-5.596

@<SCITEGIC>MOL_PROPERTY
VdW12
SciTegic.value.DoubleValue
5.980

@<SCITEGIC>MOL_PROPERTY
Bond
SciTegic.value.DoubleValue
0.198

@<SCITEGIC>MOL_PROPERTY
Angle
SciTegic.value.DoubleValue
1.369

@<SCITEGIC>MOL_PROPERTY
Pdih
SciTegic.value.DoubleValue
2.230

@<SCITEGIC>MOL_PROPERTY
Idih
SciTegic.value.DoubleValue
0.000

@<SCITEGIC>MOL_PROPERTY
Tether
SciTegic.value.DoubleValue
0.000

@<TRIPOS>MOLECULE
guest-s11_confgen4.mol2 : confsearch ligand conformer 47
          20          19           1
SMALL
USER_CHARGES
 
@<TRIPOS>ATOM
       1    N1      18.147986   19.043283   22.477621 N.4        1 MOL1        -0.5919
       2    H1      17.332589   19.615559   22.721158 H          1 MOL1         0.3682
       3    H2      18.638702   19.519106   21.714394 H          1 MOL1         0.3682
       4    H3      17.790217   18.158025   22.105161 H          1 MOL1         0.3682
       5    C1      19.059442   18.824596   23.669669 C.3        1 MOL1         0.0252
       6    H4      18.467968   18.314159   24.434609 H          1 MOL1         0.0971
       7    H5      19.358318   19.798643   24.066035 H          1 MOL1         0.0971
       8    C2      20.311206   17.980567   23.354847 C.3        1 MOL1        -0.1369
       9    H6      20.660620   17.537904   24.297063 H          1 MOL1         0.0997
      10    H7      20.036697   17.134101   22.711458 H          1 MOL1         0.0997
      11    C3      21.497533   18.764137   22.731545 C.3        1 MOL1        -0.1329
      12    H8      22.330961   18.057881   22.612699 H          1 MOL1         0.0997
      13    H9      21.856646   19.524762   23.438619 H          1 MOL1         0.0997
      14    C4      21.216887   19.411302   21.351351 C.3        1 MOL1        -0.1305
      15    H10     22.132520   19.354957   20.745794 H          1 MOL1         0.0997
      16    H11     20.463393   18.831821   20.801157 H          1 MOL1         0.0997
      17    C5      20.806831   20.899887   21.450277 C.3        1 MOL1        -0.2320
      18    H12     19.937862   21.053430   22.099055 H          1 MOL1         0.1008
      19    H13     21.630696   21.500875   21.856948 H          1 MOL1         0.1008
      20    H14     20.564351   21.301224   20.457648 H          1 MOL1         0.1008
@<TRIPOS>BOND
    1     1     2    1
    2     1     3    1
    3     1     4    1
    4     1     5    1
    5     5     6    1
    6     5     7    1
    7     5     8    1
    8     8     9    1
    9     8    10    1
   10     8    11    1
   11    11    12    1
   12    11    13    1
   13    11    14    1
   14    14    15    1
   15    14    16    1
   16    14    17    1
   17    17    18    1
   18    17    19    1
   19    17    20    1
@<TRIPOS>SUBSTRUCTURE
       1 MOL1            1 RESIDUE      1      MOL     
@<SCITEGIC>MOL_PROPERTY
VConf Rank
SciTegic.value.IntegerValue
47

@<SCITEGIC>MOL_PROPERTY
Conf_Id
SciTegic.value.IntegerValue
77

@<SCITEGIC>MOL_PROPERTY
Delta U+W
SciTegic.value.DoubleValue
5.366

@<SCITEGIC>MOL_PROPERTY
U+W
SciTegic.value.DoubleValue
-6.412

@<SCITEGIC>MOL_PROPERTY
Grad RMS
SciTegic.value.DoubleValue
0.000000

@<SCITEGIC>MOL_PROPERTY
U
SciTegic.value.DoubleValue
51.542

@<SCITEGIC>MOL_PROPERTY
W
SciTegic.value.DoubleValue
-57.954

@<SCITEGIC>MOL_PROPERTY
W(PB)
SciTegic.value.DoubleValue
-59.811

@<SCITEGIC>MOL_PROPERTY
W(SA)
SciTegic.value.DoubleValue
1.857

@<SCITEGIC>MOL_PROPERTY
Valence
SciTegic.value.DoubleValue
5.347

@<SCITEGIC>MOL_PROPERTY
Coulomb
SciTegic.value.DoubleValue
45.870

@<SCITEGIC>MOL_PROPERTY
VdW
SciTegic.value.DoubleValue
0.325

@<SCITEGIC>MOL_PROPERTY
VdW6
SciTegic.value.DoubleValue
-6.161

@<SCITEGIC>MOL_PROPERTY
VdW12
SciTegic.value.DoubleValue
6.486

@<SCITEGIC>MOL_PROPERTY
Bond
SciTegic.value.DoubleValue
0.201

@<SCITEGIC>MOL_PROPERTY
Angle
SciTegic.value.DoubleValue
1.484

@<SCITEGIC>MOL_PROPERTY
Pdih
SciTegic.value.DoubleValue
3.662

@<SCITEGIC>MOL_PROPERTY
Idih
SciTegic.value.DoubleValue
0.000

@<SCITEGIC>MOL_PROPERTY
Tether
SciTegic.value.DoubleValue
0.000

@<TRIPOS>MOLECULE
guest-s11_confgen4.mol2 : confsearch ligand conformer 48
          20          19           1
SMALL
USER_CHARGES
 
@<TRIPOS>ATOM
       1    N1      20.836267   18.341624   20.717691 N.4        1 MOL1        -0.5919
       2    H1      21.798680   17.989294   20.712010 H          1 MOL1         0.3682
       3    H2      20.302515   17.760103   21.370889 H          1 MOL1         0.3682
       4    H3      20.453716   18.179130   19.780176 H          1 MOL1         0.3682
       5    C1      20.775836   19.806507   21.105022 C.3        1 MOL1         0.0252
       6    H4      19.739336   20.146298   21.031469 H          1 MOL1         0.0971
       7    H5      21.366242   20.356598   20.367227 H          1 MOL1         0.0971
       8    C2      21.326383   20.105249   22.514299 C.3        1 MOL1        -0.1369
       9    H6      22.246597   19.530459   22.683505 H          1 MOL1         0.0997
      10    H7      21.625857   21.161443   22.538405 H          1 MOL1         0.0997
      11    C3      20.326634   19.870183   23.678391 C.3        1 MOL1        -0.1329
      12    H8      19.467092   20.547102   23.576253 H          1 MOL1         0.0997
      13    H9      20.828597   20.172263   24.608072 H          1 MOL1         0.0997
      14    C4      19.836113   18.409997   23.850917 C.3        1 MOL1        -0.1305
      15    H10     20.601508   17.703648   23.502342 H          1 MOL1         0.0997
      16    H11     19.713666   18.206519   24.924166 H          1 MOL1         0.0997
      17    C5      18.477939   18.139658   23.160917 C.3        1 MOL1        -0.2320
      18    H12     18.196726   17.083186   23.260749 H          1 MOL1         0.1008
      19    H13     17.683253   18.737968   23.625484 H          1 MOL1         0.1008
      20    H14     18.492918   18.386643   22.093973 H          1 MOL1         0.1008
@<TRIPOS>BOND
    1     1     2    1
    2     1     3    1
    3     1     4    1
    4     1     5    1
    5     5     6    1
    6     5     7    1
    7     5     8    1
    8     8     9    1
    9     8    10    1
   10     8    11    1
   11    11    12    1
   12    11    13    1
   13    11    14    1
   14    14    15    1
   15    14    16    1
   16    14    17    1
   17    17    18    1
   18    17    19    1
   19    17    20    1
@<TRIPOS>SUBSTRUCTURE
       1 MOL1            1 RESIDUE      1      MOL     
@<SCITEGIC>MOL_PROPERTY
VConf Rank
SciTegic.value.IntegerValue
48

@<SCITEGIC>MOL_PROPERTY
Conf_Id
SciTegic.value.IntegerValue
67

@<SCITEGIC>MOL_PROPERTY
Delta U+W
SciTegic.value.DoubleValue
5.353

@<SCITEGIC>MOL_PROPERTY
U+W
SciTegic.value.DoubleValue
-6.425

@<SCITEGIC>MOL_PROPERTY
Grad RMS
SciTegic.value.DoubleValue
0.000000

@<SCITEGIC>MOL_PROPERTY
U
SciTegic.value.DoubleValue
51.541

@<SCITEGIC>MOL_PROPERTY
W
SciTegic.value.DoubleValue
-57.966

@<SCITEGIC>MOL_PROPERTY
W(PB)
SciTegic.value.DoubleValue
-59.821

@<SCITEGIC>MOL_PROPERTY
W(SA)
SciTegic.value.DoubleValue
1.855

@<SCITEGIC>MOL_PROPERTY
Valence
SciTegic.value.DoubleValue
5.347

@<SCITEGIC>MOL_PROPERTY
Coulomb
SciTegic.value.DoubleValue
45.870

@<SCITEGIC>MOL_PROPERTY
VdW
SciTegic.value.DoubleValue
0.325

@<SCITEGIC>MOL_PROPERTY
VdW6
SciTegic.value.DoubleValue
-6.161

@<SCITEGIC>MOL_PROPERTY
VdW12
SciTegic.value.DoubleValue
6.486

@<SCITEGIC>MOL_PROPERTY
Bond
SciTegic.value.DoubleValue
0.201

@<SCITEGIC>MOL_PROPERTY
Angle
SciTegic.value.DoubleValue
1.485

@<SCITEGIC>MOL_PROPERTY
Pdih
SciTegic.value.DoubleValue
3.662

@<SCITEGIC>MOL_PROPERTY
Idih
SciTegic.value.DoubleValue
0.000

@<SCITEGIC>MOL_PROPERTY
Tether
SciTegic.value.DoubleValue
0.000

@<TRIPOS>MOLECULE
guest-s11_confgen4.mol2 : confsearch ligand conformer 49
          20          19           1
SMALL
USER_CHARGES
 
@<TRIPOS>ATOM
       1    N1      18.738192   21.521623   24.081613 N.4        1 MOL1        -0.5919
       2    H1      17.820903   21.479129   23.626461 H          1 MOL1         0.3682
       3    H2      18.572211   21.773743   25.061657 H          1 MOL1         0.3682
       4    H3      19.249394   22.301732   23.656772 H          1 MOL1         0.3682
       5    C1      19.493845   20.213993   23.956789 C.3        1 MOL1         0.0252
       6    H4      18.908080   19.436771   24.455109 H          1 MOL1         0.0971
       7    H5      20.443776   20.321123   24.487514 H          1 MOL1         0.0971
       8    C2      19.759640   19.805924   22.496619 C.3        1 MOL1        -0.1369
       9    H6      18.803902   19.715078   21.963346 H          1 MOL1         0.0997
      10    H7      20.334311   20.596381   21.995622 H          1 MOL1         0.0997
      11    C3      20.530795   18.469815   22.413763 C.3        1 MOL1        -0.1329
      12    H8      19.955459   17.682422   22.920509 H          1 MOL1         0.0997
      13    H9      21.484076   18.562685   22.952672 H          1 MOL1         0.0997
      14    C4      20.803320   18.049962   20.951918 C.3        1 MOL1        -0.1305
      15    H10     19.852113   17.953876   20.409681 H          1 MOL1         0.0997
      16    H11     21.380593   18.833955   20.441861 H          1 MOL1         0.0997
      17    C5      21.573842   16.714592   20.874062 C.3        1 MOL1        -0.2320
      18    H12     21.005597   15.902515   21.346126 H          1 MOL1         0.1008
      19    H13     21.757676   16.433376   19.828995 H          1 MOL1         0.1008
      20    H14     22.546064   16.789496   21.378430 H          1 MOL1         0.1008
@<TRIPOS>BOND
    1     1     2    1
    2     1     3    1
    3     1     4    1
    4     1     5    1
    5     5     6    1
    6     5     7    1
    7     5     8    1
    8     8     9    1
    9     8    10    1
   10     8    11    1
   11    11    12    1
   12    11    13    1
   13    11    14    1
   14    14    15    1
   15    14    16    1
   16    14    17    1
   17    17    18    1
   18    17    19    1
   19    17    20    1
@<TRIPOS>SUBSTRUCTURE
       1 MOL1            1 RESIDUE      1      MOL     
@<SCITEGIC>MOL_PROPERTY
VConf Rank
SciTegic.value.IntegerValue
49

@<SCITEGIC>MOL_PROPERTY
Conf_Id
SciTegic.value.IntegerValue
72

@<SCITEGIC>MOL_PROPERTY
Delta U+W
SciTegic.value.DoubleValue
0.000

@<SCITEGIC>MOL_PROPERTY
U+W
SciTegic.value.DoubleValue
-11.778

@<SCITEGIC>MOL_PROPERTY
Grad RMS
SciTegic.value.DoubleValue
0.000000

@<SCITEGIC>MOL_PROPERTY
U
SciTegic.value.DoubleValue
45.772

@<SCITEGIC>MOL_PROPERTY
W
SciTegic.value.DoubleValue
-57.550

@<SCITEGIC>MOL_PROPERTY
W(PB)
SciTegic.value.DoubleValue
-59.511

@<SCITEGIC>MOL_PROPERTY
W(SA)
SciTegic.value.DoubleValue
1.961

@<SCITEGIC>MOL_PROPERTY
Valence
SciTegic.value.DoubleValue
1.299

@<SCITEGIC>MOL_PROPERTY
Coulomb
SciTegic.value.DoubleValue
44.177

@<SCITEGIC>MOL_PROPERTY
VdW
SciTegic.value.DoubleValue
0.297

@<SCITEGIC>MOL_PROPERTY
VdW6
SciTegic.value.DoubleValue
-3.490

@<SCITEGIC>MOL_PROPERTY
VdW12
SciTegic.value.DoubleValue
3.786

@<SCITEGIC>MOL_PROPERTY
Bond
SciTegic.value.DoubleValue
0.096

@<SCITEGIC>MOL_PROPERTY
Angle
SciTegic.value.DoubleValue
0.381

@<SCITEGIC>MOL_PROPERTY
Pdih
SciTegic.value.DoubleValue
0.822

@<SCITEGIC>MOL_PROPERTY
Idih
SciTegic.value.DoubleValue
0.000

@<SCITEGIC>MOL_PROPERTY
Tether
SciTegic.value.DoubleValue
0.000

@<TRIPOS>MOLECULE
guest-s11_confgen4.mol2 : confsearch ligand conformer 50
          20          19           1
SMALL
USER_CHARGES
 
@<TRIPOS>ATOM
       1    N1      19.219116   21.802274   23.651362 N.4        1 MOL1        -0.5919
       2    H1      19.842039   22.319227   23.022823 H          1 MOL1         0.3682
       3    H2      18.282584   21.828255   23.235915 H          1 MOL1         0.3682
       4    H3      19.170940   22.334952   24.526299 H          1 MOL1         0.3682
       5    C1      19.697376   20.382895   23.882025 C.3        1 MOL1         0.0252
       6    H4      19.006993   19.903773   24.581529 H          1 MOL1         0.0971
       7    H5      20.683497   20.431067   24.351866 H          1 MOL1         0.0971
       8    C2      19.780749   19.554389   22.587461 C.3        1 MOL1        -0.1369
       9    H6      18.792048   19.521996   22.110772 H          1 MOL1         0.0997
      10    H7      20.461898   20.053420   21.886697 H          1 MOL1         0.0997
      11    C3      20.270087   18.114324   22.870108 C.3        1 MOL1        -0.1329
      12    H8      19.620467   17.658518   23.630355 H          1 MOL1         0.0997
      13    H9      21.278951   18.144797   23.304680 H          1 MOL1         0.0997
      14    C4      20.273679   17.205732   21.616665 C.3        1 MOL1        -0.1305
      15    H10     20.531070   16.182307   21.923732 H          1 MOL1         0.0997
      16    H11     19.261159   17.153209   21.192495 H          1 MOL1         0.0997
      17    C5      21.270290   17.664353   20.527645 C.3        1 MOL1        -0.2320
      18    H12     22.286432   17.752143   20.933556 H          1 MOL1         0.1008
      19    H13     21.299901   16.939106   19.704182 H          1 MOL1         0.1008
      20    H14     20.984753   18.634159   20.101773 H          1 MOL1         0.1008
@<TRIPOS>BOND
    1     1     2    1
    2     1     3    1
    3     1     4    1
    4     1     5    1
    5     5     6    1
    6     5     7    1
    7     5     8    1
    8     8     9    1
    9     8    10    1
   10     8    11    1
   11    11    12    1
   12    11    13    1
   13    11    14    1
   14    14    15    1
   15    14    16    1
   16    14    17    1
   17    17    18    1
   18    17    19    1
   19    17    20    1
@<TRIPOS>SUBSTRUCTURE
       1 MOL1            1 RESIDUE      1      MOL     
@<SCITEGIC>MOL_PROPERTY
VConf Rank
SciTegic.value.IntegerValue
50

@<SCITEGIC>MOL_PROPERTY
Conf_Id
SciTegic.value.IntegerValue
42

@<SCITEGIC>MOL_PROPERTY
Delta U+W
SciTegic.value.DoubleValue
0.508

@<SCITEGIC>MOL_PROPERTY
U+W
SciTegic.value.DoubleValue
-11.270

@<SCITEGIC>MOL_PROPERTY
Grad RMS
SciTegic.value.DoubleValue
0.000000

@<SCITEGIC>MOL_PROPERTY
U
SciTegic.value.DoubleValue
46.486

@<SCITEGIC>MOL_PROPERTY
W
SciTegic.value.DoubleValue
-57.756

@<SCITEGIC>MOL_PROPERTY
W(PB)
SciTegic.value.DoubleValue
-59.705

@<SCITEGIC>MOL_PROPERTY
W(SA)
SciTegic.value.DoubleValue
1.949

@<SCITEGIC>MOL_PROPERTY
Valence
SciTegic.value.DoubleValue
1.806

@<SCITEGIC>MOL_PROPERTY
Coulomb
SciTegic.value.DoubleValue
44.248

@<SCITEGIC>MOL_PROPERTY
VdW
SciTegic.value.DoubleValue
0.433

@<SCITEGIC>MOL_PROPERTY
VdW6
SciTegic.value.DoubleValue
-4.089

@<SCITEGIC>MOL_PROPERTY
VdW12
SciTegic.value.DoubleValue
4.522

@<SCITEGIC>MOL_PROPERTY
Bond
SciTegic.value.DoubleValue
0.131

@<SCITEGIC>MOL_PROPERTY
Angle
SciTegic.value.DoubleValue
0.628

@<SCITEGIC>MOL_PROPERTY
Pdih
SciTegic.value.DoubleValue
1.047

@<SCITEGIC>MOL_PROPERTY
Idih
SciTegic.value.DoubleValue
0.000

@<SCITEGIC>MOL_PROPERTY
Tether
SciTegic.value.DoubleValue
0.000

@<TRIPOS>MOLECULE
guest-s11_confgen4.mol2 : confsearch ligand conformer 51
          20          19           1
SMALL
USER_CHARGES
 
@<TRIPOS>ATOM
       1    N1      21.925851   18.479778   20.123063 N.4        1 MOL1        -0.5919
       2    H1      21.588263   19.231141   19.513265 H          1 MOL1         0.3682
       3    H2      22.746630   18.840505   20.619583 H          1 MOL1         0.3682
       4    H3      22.256200   17.726194   19.511048 H          1 MOL1         0.3682
       5    C1      20.851649   17.999410   21.078007 C.3        1 MOL1         0.0252
       6    H4      21.269522   17.182821   21.673047 H          1 MOL1         0.0971
       7    H5      20.024591   17.602279   20.483232 H          1 MOL1         0.0971
       8    C2      20.332557   19.107372   22.011941 C.3        1 MOL1        -0.1369
       9    H6      21.173304   19.510457   22.590503 H          1 MOL1         0.0997
      10    H7      19.928381   19.932130   21.410088 H          1 MOL1         0.0997
      11    C3      19.237953   18.573769   22.966008 C.3        1 MOL1        -0.1329
      12    H8      19.655133   17.779542   23.600635 H          1 MOL1         0.0997
      13    H9      18.441323   18.106233   22.370581 H          1 MOL1         0.0997
      14    C4      18.606957   19.670863   23.857579 C.3        1 MOL1        -0.1305
      15    H10     18.167249   20.455762   23.226336 H          1 MOL1         0.0997
      16    H11     17.774239   19.229811   24.423257 H          1 MOL1         0.0997
      17    C5      19.605622   20.303520   24.853544 C.3        1 MOL1        -0.2320
      18    H12     20.394550   20.861684   24.334440 H          1 MOL1         0.1008
      19    H13     19.089670   21.006206   25.520611 H          1 MOL1         0.1008
      20    H14     20.080697   19.535936   25.478150 H          1 MOL1         0.1008
@<TRIPOS>BOND
    1     1     2    1
    2     1     3    1
    3     1     4    1
    4     1     5    1
    5     5     6    1
    6     5     7    1
    7     5     8    1
    8     8     9    1
    9     8    10    1
   10     8    11    1
   11    11    12    1
   12    11    13    1
   13    11    14    1
   14    14    15    1
   15    14    16    1
   16    14    17    1
   17    17    18    1
   18    17    19    1
   19    17    20    1
@<TRIPOS>SUBSTRUCTURE
       1 MOL1            1 RESIDUE      1      MOL     
@<SCITEGIC>MOL_PROPERTY
VConf Rank
SciTegic.value.IntegerValue
51

@<SCITEGIC>MOL_PROPERTY
Conf_Id
SciTegic.value.IntegerValue
41

@<SCITEGIC>MOL_PROPERTY
Delta U+W
SciTegic.value.DoubleValue
0.515

@<SCITEGIC>MOL_PROPERTY
U+W
SciTegic.value.DoubleValue
-11.263

@<SCITEGIC>MOL_PROPERTY
Grad RMS
SciTegic.value.DoubleValue
0.000000

@<SCITEGIC>MOL_PROPERTY
U
SciTegic.value.DoubleValue
46.486

@<SCITEGIC>MOL_PROPERTY
W
SciTegic.value.DoubleValue
-57.749

@<SCITEGIC>MOL_PROPERTY
W(PB)
SciTegic.value.DoubleValue
-59.685

@<SCITEGIC>MOL_PROPERTY
W(SA)
SciTegic.value.DoubleValue
1.936

@<SCITEGIC>MOL_PROPERTY
Valence
SciTegic.value.DoubleValue
1.806

@<SCITEGIC>MOL_PROPERTY
Coulomb
SciTegic.value.DoubleValue
44.248

@<SCITEGIC>MOL_PROPERTY
VdW
SciTegic.value.DoubleValue
0.433

@<SCITEGIC>MOL_PROPERTY
VdW6
SciTegic.value.DoubleValue
-4.089

@<SCITEGIC>MOL_PROPERTY
VdW12
SciTegic.value.DoubleValue
4.522

@<SCITEGIC>MOL_PROPERTY
Bond
SciTegic.value.DoubleValue
0.131

@<SCITEGIC>MOL_PROPERTY
Angle
SciTegic.value.DoubleValue
0.628

@<SCITEGIC>MOL_PROPERTY
Pdih
SciTegic.value.DoubleValue
1.047

@<SCITEGIC>MOL_PROPERTY
Idih
SciTegic.value.DoubleValue
0.000

@<SCITEGIC>MOL_PROPERTY
Tether
SciTegic.value.DoubleValue
0.000

@<TRIPOS>MOLECULE
guest-s11_confgen4.mol2 : confsearch ligand conformer 52
          20          19           1
SMALL
USER_CHARGES
 
@<TRIPOS>ATOM
       1    N1      19.178787   21.309219   21.065124 N.4        1 MOL1        -0.5919
       2    H1      18.890444   22.291881   21.012825 H          1 MOL1         0.3682
       3    H2      20.157934   21.269681   20.767386 H          1 MOL1         0.3682
       4    H3      18.628853   20.800022   20.366207 H          1 MOL1         0.3682
       5    C1      18.988063   20.740272   22.457994 C.3        1 MOL1         0.0252
       6    H4      17.933192   20.857147   22.721026 H          1 MOL1         0.0971
       7    H5      19.580229   21.340128   23.154380 H          1 MOL1         0.0971
       8    C2      19.383341   19.255950   22.586105 C.3        1 MOL1        -0.1369
       9    H6      19.098118   18.915217   23.589179 H          1 MOL1         0.0997
      10    H7      18.799568   18.658484   21.873410 H          1 MOL1         0.0997
      11    C3      20.898347   19.018637   22.363494 C.3        1 MOL1        -0.1329
      12    H8      21.475295   19.601750   23.094642 H          1 MOL1         0.0997
      13    H9      21.185526   19.394736   21.372694 H          1 MOL1         0.0997
      14    C4      21.308439   17.528337   22.451883 C.3        1 MOL1        -0.1305
      15    H10     20.743825   16.942758   21.712847 H          1 MOL1         0.0997
      16    H11     22.367115   17.437323   22.171062 H          1 MOL1         0.0997
      17    C5      21.113620   16.917359   23.858480 C.3        1 MOL1        -0.2320
      18    H12     20.053261   16.870212   24.135403 H          1 MOL1         0.1008
      19    H13     21.507430   15.893216   23.889982 H          1 MOL1         0.1008
      20    H14     21.643144   17.503420   24.620806 H          1 MOL1         0.1008
@<TRIPOS>BOND
    1     1     2    1
    2     1     3    1
    3     1     4    1
    4     1     5    1
    5     5     6    1
    6     5     7    1
    7     5     8    1
    8     8     9    1
    9     8    10    1
   10     8    11    1
   11    11    12    1
   12    11    13    1
   13    11    14    1
   14    14    15    1
   15    14    16    1
   16    14    17    1
   17    17    18    1
   18    17    19    1
   19    17    20    1
@<TRIPOS>SUBSTRUCTURE
       1 MOL1            1 RESIDUE      1      MOL     
@<SCITEGIC>MOL_PROPERTY
VConf Rank
SciTegic.value.IntegerValue
52

@<SCITEGIC>MOL_PROPERTY
Conf_Id
SciTegic.value.IntegerValue
33

@<SCITEGIC>MOL_PROPERTY
Delta U+W
SciTegic.value.DoubleValue
0.703

@<SCITEGIC>MOL_PROPERTY
U+W
SciTegic.value.DoubleValue
-11.075

@<SCITEGIC>MOL_PROPERTY
Grad RMS
SciTegic.value.DoubleValue
0.000000

@<SCITEGIC>MOL_PROPERTY
U
SciTegic.value.DoubleValue
47.080

@<SCITEGIC>MOL_PROPERTY
W
SciTegic.value.DoubleValue
-58.154

@<SCITEGIC>MOL_PROPERTY
W(PB)
SciTegic.value.DoubleValue
-60.053

@<SCITEGIC>MOL_PROPERTY
W(SA)
SciTegic.value.DoubleValue
1.899

@<SCITEGIC>MOL_PROPERTY
Valence
SciTegic.value.DoubleValue
1.943

@<SCITEGIC>MOL_PROPERTY
Coulomb
SciTegic.value.DoubleValue
44.572

@<SCITEGIC>MOL_PROPERTY
VdW
SciTegic.value.DoubleValue
0.565

@<SCITEGIC>MOL_PROPERTY
VdW6
SciTegic.value.DoubleValue
-4.575

@<SCITEGIC>MOL_PROPERTY
VdW12
SciTegic.value.DoubleValue
5.139

@<SCITEGIC>MOL_PROPERTY
Bond
SciTegic.value.DoubleValue
0.158

@<SCITEGIC>MOL_PROPERTY
Angle
SciTegic.value.DoubleValue
0.700

@<SCITEGIC>MOL_PROPERTY
Pdih
SciTegic.value.DoubleValue
1.085

@<SCITEGIC>MOL_PROPERTY
Idih
SciTegic.value.DoubleValue
0.000

@<SCITEGIC>MOL_PROPERTY
Tether
SciTegic.value.DoubleValue
0.000

@<TRIPOS>MOLECULE
guest-s11_confgen4.mol2 : confsearch ligand conformer 53
          20          19           1
SMALL
USER_CHARGES
 
@<TRIPOS>ATOM
       1    N1      20.278617   16.460747   23.195086 N.4        1 MOL1        -0.5919
       2    H1      20.483232   15.720608   23.874664 H          1 MOL1         0.3682
       3    H2      19.535853   16.106866   22.584134 H          1 MOL1         0.3682
       4    H3      21.116729   16.575182   22.617666 H          1 MOL1         0.3682
       5    C1      19.880471   17.755847   23.876524 C.3        1 MOL1         0.0252
       6    H4      20.702968   18.064425   24.527463 H          1 MOL1         0.0971
       7    H5      19.010846   17.544792   24.504861 H          1 MOL1         0.0971
       8    C2      19.537124   18.896586   22.898419 C.3        1 MOL1        -0.1369
       9    H6      18.722705   18.577446   22.234671 H          1 MOL1         0.0997
      10    H7      19.152224   19.740392   23.484465 H          1 MOL1         0.0997
      11    C3      20.757641   19.354293   22.060587 C.3        1 MOL1        -0.1329
      12    H8      21.161039   18.497856   21.504356 H          1 MOL1         0.0997
      13    H9      21.559877   19.693316   22.730623 H          1 MOL1         0.0997
      14    C4      20.423601   20.475068   21.046064 C.3        1 MOL1        -0.1305
      15    H10     21.308211   20.658349   20.420112 H          1 MOL1         0.0997
      16    H11     19.630869   20.135769   20.364655 H          1 MOL1         0.0997
      17    C5      20.002811   21.804947   21.712489 C.3        1 MOL1        -0.2320
      18    H12     20.765366   22.149725   22.422872 H          1 MOL1         0.1008
      19    H13     19.871459   22.588896   20.955443 H          1 MOL1         0.1008
      20    H14     19.051812   21.704627   22.249897 H          1 MOL1         0.1008
@<TRIPOS>BOND
    1     1     2    1
    2     1     3    1
    3     1     4    1
    4     1     5    1
    5     5     6    1
    6     5     7    1
    7     5     8    1
    8     8     9    1
    9     8    10    1
   10     8    11    1
   11    11    12    1
   12    11    13    1
   13    11    14    1
   14    14    15    1
   15    14    16    1
   16    14    17    1
   17    17    18    1
   18    17    19    1
   19    17    20    1
@<TRIPOS>SUBSTRUCTURE
       1 MOL1            1 RESIDUE      1      MOL     
@<SCITEGIC>MOL_PROPERTY
VConf Rank
SciTegic.value.IntegerValue
53

@<SCITEGIC>MOL_PROPERTY
Conf_Id
SciTegic.value.IntegerValue
24

@<SCITEGIC>MOL_PROPERTY
Delta U+W
SciTegic.value.DoubleValue
0.847

@<SCITEGIC>MOL_PROPERTY
U+W
SciTegic.value.DoubleValue
-10.931

@<SCITEGIC>MOL_PROPERTY
Grad RMS
SciTegic.value.DoubleValue
0.000000

@<SCITEGIC>MOL_PROPERTY
U
SciTegic.value.DoubleValue
47.080

@<SCITEGIC>MOL_PROPERTY
W
SciTegic.value.DoubleValue
-58.011

@<SCITEGIC>MOL_PROPERTY
W(PB)
SciTegic.value.DoubleValue
-59.914

@<SCITEGIC>MOL_PROPERTY
W(SA)
SciTegic.value.DoubleValue
1.903

@<SCITEGIC>MOL_PROPERTY
Valence
SciTegic.value.DoubleValue
1.943

@<SCITEGIC>MOL_PROPERTY
Coulomb
SciTegic.value.DoubleValue
44.572

@<SCITEGIC>MOL_PROPERTY
VdW
SciTegic.value.DoubleValue
0.565

@<SCITEGIC>MOL_PROPERTY
VdW6
SciTegic.value.DoubleValue
-4.575

@<SCITEGIC>MOL_PROPERTY
VdW12
SciTegic.value.DoubleValue
5.140

@<SCITEGIC>MOL_PROPERTY
Bond
SciTegic.value.DoubleValue
0.158

@<SCITEGIC>MOL_PROPERTY
Angle
SciTegic.value.DoubleValue
0.700

@<SCITEGIC>MOL_PROPERTY
Pdih
SciTegic.value.DoubleValue
1.085

@<SCITEGIC>MOL_PROPERTY
Idih
SciTegic.value.DoubleValue
0.000

@<SCITEGIC>MOL_PROPERTY
Tether
SciTegic.value.DoubleValue
0.000

@<TRIPOS>MOLECULE
guest-s11_confgen4.mol2 : confsearch ligand conformer 54
          20          19           1
SMALL
USER_CHARGES
 
@<TRIPOS>ATOM
       1    N1      21.979037   20.862836   21.308953 N.4        1 MOL1        -0.5919
       2    H1      22.523670   20.676537   20.460332 H          1 MOL1         0.3682
       3    H2      21.250247   21.536195   21.052682 H          1 MOL1         0.3682
       4    H3      22.607075   21.334629   21.967200 H          1 MOL1         0.3682
       5    C1      21.396135   19.592417   21.894263 C.3        1 MOL1         0.0252
       6    H4      22.222761   18.912045   22.115987 H          1 MOL1         0.0971
       7    H5      20.765087   19.129742   21.130919 H          1 MOL1         0.0971
       8    C2      20.570503   19.837638   23.171300 C.3        1 MOL1        -0.1369
       9    H6      21.201964   20.339928   23.916096 H          1 MOL1         0.0997
      10    H7      19.745792   20.527702   22.951940 H          1 MOL1         0.0997
      11    C3      20.016513   18.528690   23.787536 C.3        1 MOL1        -0.1329
      12    H8      19.451037   18.774558   24.696959 H          1 MOL1         0.0997
      13    H9      20.859273   17.904481   24.115577 H          1 MOL1         0.0997
      14    C4      19.116282   17.693746   22.841134 C.3        1 MOL1        -0.1305
      15    H10     19.695033   17.348005   21.973789 H          1 MOL1         0.0997
      16    H11     18.797773   16.785521   23.371756 H          1 MOL1         0.0997
      17    C5      17.860331   18.454274   22.358233 C.3        1 MOL1        -0.2320
      18    H12     17.212320   17.791861   21.769850 H          1 MOL1         0.1008
      19    H13     17.274497   18.828756   23.207666 H          1 MOL1         0.1008
      20    H14     18.125950   19.306731   21.720739 H          1 MOL1         0.1008
@<TRIPOS>BOND
    1     1     2    1
    2     1     3    1
    3     1     4    1
    4     1     5    1
    5     5     6    1
    6     5     7    1
    7     5     8    1
    8     8     9    1
    9     8    10    1
   10     8    11    1
   11    11    12    1
   12    11    13    1
   13    11    14    1
   14    14    15    1
   15    14    16    1
   16    14    17    1
   17    17    18    1
   18    17    19    1
   19    17    20    1
@<TRIPOS>SUBSTRUCTURE
       1 MOL1            1 RESIDUE      1      MOL     
@<SCITEGIC>MOL_PROPERTY
VConf Rank
SciTegic.value.IntegerValue
54

@<SCITEGIC>MOL_PROPERTY
Conf_Id
SciTegic.value.IntegerValue
64

@<SCITEGIC>MOL_PROPERTY
Delta U+W
SciTegic.value.DoubleValue
0.707

@<SCITEGIC>MOL_PROPERTY
U+W
SciTegic.value.DoubleValue
-11.070

@<SCITEGIC>MOL_PROPERTY
Grad RMS
SciTegic.value.DoubleValue
0.000000

@<SCITEGIC>MOL_PROPERTY
U
SciTegic.value.DoubleValue
47.077

@<SCITEGIC>MOL_PROPERTY
W
SciTegic.value.DoubleValue
-58.148

@<SCITEGIC>MOL_PROPERTY
W(PB)
SciTegic.value.DoubleValue
-60.054

@<SCITEGIC>MOL_PROPERTY
W(SA)
SciTegic.value.DoubleValue
1.906

@<SCITEGIC>MOL_PROPERTY
Valence
SciTegic.value.DoubleValue
2.039

@<SCITEGIC>MOL_PROPERTY
Coulomb
SciTegic.value.DoubleValue
44.655

@<SCITEGIC>MOL_PROPERTY
VdW
SciTegic.value.DoubleValue
0.383

@<SCITEGIC>MOL_PROPERTY
VdW6
SciTegic.value.DoubleValue
-4.912

@<SCITEGIC>MOL_PROPERTY
VdW12
SciTegic.value.DoubleValue
5.295

@<SCITEGIC>MOL_PROPERTY
Bond
SciTegic.value.DoubleValue
0.159

@<SCITEGIC>MOL_PROPERTY
Angle
SciTegic.value.DoubleValue
0.856

@<SCITEGIC>MOL_PROPERTY
Pdih
SciTegic.value.DoubleValue
1.024

@<SCITEGIC>MOL_PROPERTY
Idih
SciTegic.value.DoubleValue
0.000

@<SCITEGIC>MOL_PROPERTY
Tether
SciTegic.value.DoubleValue
0.000

@<TRIPOS>MOLECULE
guest-s11_confgen4.mol2 : confsearch ligand conformer 55
          20          19           1
SMALL
USER_CHARGES
 
@<TRIPOS>ATOM
       1    N1      19.830612   19.907160   25.077215 N.4        1 MOL1        -0.5919
       2    H1      19.318521   19.245464   25.669017 H          1 MOL1         0.3682
       3    H2      20.826969   19.789448   25.286115 H          1 MOL1         0.3682
       4    H3      19.570248   20.848402   25.389883 H          1 MOL1         0.3682
       5    C1      19.531766   19.699590   23.606184 C.3        1 MOL1         0.0252
       6    H4      20.084724   20.454726   23.041389 H          1 MOL1         0.0971
       7    H5      18.462722   19.868485   23.451271 H          1 MOL1         0.0971
       8    C2      19.912140   18.294059   23.103770 C.3        1 MOL1        -0.1369
       9    H6      20.983329   18.120000   23.267211 H          1 MOL1         0.0997
      10    H7      19.383216   17.542635   23.704904 H          1 MOL1         0.0997
      11    C3      19.561630   18.075962   21.610595 C.3        1 MOL1        -0.1329
      12    H8      18.470881   18.130125   21.488824 H          1 MOL1         0.0997
      13    H9      19.847110   17.054612   21.323181 H          1 MOL1         0.0997
      14    C4      20.223030   19.081152   20.633166 C.3        1 MOL1        -0.1305
      15    H10     19.892176   18.845827   19.611872 H          1 MOL1         0.0997
      16    H11     19.866556   20.099936   20.837568 H          1 MOL1         0.0997
      17    C5      21.767854   19.052889   20.674761 C.3        1 MOL1        -0.2320
      18    H12     22.149316   18.039655   20.493597 H          1 MOL1         0.1008
      19    H13     22.185355   19.711603   19.902303 H          1 MOL1         0.1008
      20    H14     22.151060   19.396903   21.643494 H          1 MOL1         0.1008
@<TRIPOS>BOND
    1     1     2    1
    2     1     3    1
    3     1     4    1
    4     1     5    1
    5     5     6    1
    6     5     7    1
    7     5     8    1
    8     8     9    1
    9     8    10    1
   10     8    11    1
   11    11    12    1
   12    11    13    1
   13    11    14    1
   14    14    15    1
   15    14    16    1
   16    14    17    1
   17    17    18    1
   18    17    19    1
   19    17    20    1
@<TRIPOS>SUBSTRUCTURE
       1 MOL1            1 RESIDUE      1      MOL     
@<SCITEGIC>MOL_PROPERTY
VConf Rank
SciTegic.value.IntegerValue
55

@<SCITEGIC>MOL_PROPERTY
Conf_Id
SciTegic.value.IntegerValue
22

@<SCITEGIC>MOL_PROPERTY
Delta U+W
SciTegic.value.DoubleValue
0.731

@<SCITEGIC>MOL_PROPERTY
U+W
SciTegic.value.DoubleValue
-11.047

@<SCITEGIC>MOL_PROPERTY
Grad RMS
SciTegic.value.DoubleValue
0.000000

@<SCITEGIC>MOL_PROPERTY
U
SciTegic.value.DoubleValue
47.078

@<SCITEGIC>MOL_PROPERTY
W
SciTegic.value.DoubleValue
-58.125

@<SCITEGIC>MOL_PROPERTY
W(PB)
SciTegic.value.DoubleValue
-60.031

@<SCITEGIC>MOL_PROPERTY
W(SA)
SciTegic.value.DoubleValue
1.906

@<SCITEGIC>MOL_PROPERTY
Valence
SciTegic.value.DoubleValue
2.039

@<SCITEGIC>MOL_PROPERTY
Coulomb
SciTegic.value.DoubleValue
44.655

@<SCITEGIC>MOL_PROPERTY
VdW
SciTegic.value.DoubleValue
0.383

@<SCITEGIC>MOL_PROPERTY
VdW6
SciTegic.value.DoubleValue
-4.913

@<SCITEGIC>MOL_PROPERTY
VdW12
SciTegic.value.DoubleValue
5.296

@<SCITEGIC>MOL_PROPERTY
Bond
SciTegic.value.DoubleValue
0.159

@<SCITEGIC>MOL_PROPERTY
Angle
SciTegic.value.DoubleValue
0.856

@<SCITEGIC>MOL_PROPERTY
Pdih
SciTegic.value.DoubleValue
1.024

@<SCITEGIC>MOL_PROPERTY
Idih
SciTegic.value.DoubleValue
0.000

@<SCITEGIC>MOL_PROPERTY
Tether
SciTegic.value.DoubleValue
0.000

@<TRIPOS>MOLECULE
guest-s11_confgen4.mol2 : confsearch ligand conformer 56
          20          19           1
SMALL
USER_CHARGES
 
@<TRIPOS>ATOM
       1    N1      22.281736   20.596917   21.418795 N.4        1 MOL1        -0.5919
       2    H1      22.888725   19.839791   21.089161 H          1 MOL1         0.3682
       3    H2      22.017266   21.149986   20.597527 H          1 MOL1         0.3682
       4    H3      22.857920   21.203102   22.012127 H          1 MOL1         0.3682
       5    C1      21.070093   20.069319   22.160532 C.3        1 MOL1         0.0252
       6    H4      20.484989   20.926078   22.505515 H          1 MOL1         0.0971
       7    H5      21.429234   19.519318   23.033334 H          1 MOL1         0.0971
       8    C2      20.186595   19.150502   21.298049 C.3        1 MOL1        -0.1369
       9    H6      19.932620   19.676374   20.368061 H          1 MOL1         0.0997
      10    H7      20.760698   18.261652   21.004557 H          1 MOL1         0.0997
      11    C3      18.870203   18.714388   21.990025 C.3        1 MOL1        -0.1329
      12    H8      18.284726   18.144277   21.255354 H          1 MOL1         0.0997
      13    H9      18.261118   19.595442   22.235196 H          1 MOL1         0.0997
      14    C4      19.056569   17.825711   23.247288 C.3        1 MOL1        -0.1305
      15    H10     18.171417   17.182028   23.348682 H          1 MOL1         0.0997
      16    H11     19.909369   17.146100   23.110899 H          1 MOL1         0.0997
      17    C5      19.212488   18.624937   24.562492 C.3        1 MOL1        -0.2320
      18    H12     20.127204   19.226552   24.577587 H          1 MOL1         0.1008
      19    H13     18.359334   19.298014   24.717731 H          1 MOL1         0.1008
      20    H14     19.256302   17.942126   25.420883 H          1 MOL1         0.1008
@<TRIPOS>BOND
    1     1     2    1
    2     1     3    1
    3     1     4    1
    4     1     5    1
    5     5     6    1
    6     5     7    1
    7     5     8    1
    8     8     9    1
    9     8    10    1
   10     8    11    1
   11    11    12    1
   12    11    13    1
   13    11    14    1
   14    14    15    1
   15    14    16    1
   16    14    17    1
   17    17    18    1
   18    17    19    1
   19    17    20    1
@<TRIPOS>SUBSTRUCTURE
       1 MOL1            1 RESIDUE      1      MOL     
@<SCITEGIC>MOL_PROPERTY
VConf Rank
SciTegic.value.IntegerValue
56

@<SCITEGIC>MOL_PROPERTY
Conf_Id
SciTegic.value.IntegerValue
61

@<SCITEGIC>MOL_PROPERTY
Delta U+W
SciTegic.value.DoubleValue
2.669

@<SCITEGIC>MOL_PROPERTY
U+W
SciTegic.value.DoubleValue
-9.108

@<SCITEGIC>MOL_PROPERTY
Grad RMS
SciTegic.value.DoubleValue
0.000000

@<SCITEGIC>MOL_PROPERTY
U
SciTegic.value.DoubleValue
48.916

@<SCITEGIC>MOL_PROPERTY
W
SciTegic.value.DoubleValue
-58.025

@<SCITEGIC>MOL_PROPERTY
W(PB)
SciTegic.value.DoubleValue
-59.935

@<SCITEGIC>MOL_PROPERTY
W(SA)
SciTegic.value.DoubleValue
1.911

@<SCITEGIC>MOL_PROPERTY
Valence
SciTegic.value.DoubleValue
3.785

@<SCITEGIC>MOL_PROPERTY
Coulomb
SciTegic.value.DoubleValue
44.716

@<SCITEGIC>MOL_PROPERTY
VdW
SciTegic.value.DoubleValue
0.415

@<SCITEGIC>MOL_PROPERTY
VdW6
SciTegic.value.DoubleValue
-4.836

@<SCITEGIC>MOL_PROPERTY
VdW12
SciTegic.value.DoubleValue
5.251

@<SCITEGIC>MOL_PROPERTY
Bond
SciTegic.value.DoubleValue
0.175

@<SCITEGIC>MOL_PROPERTY
Angle
SciTegic.value.DoubleValue
1.195

@<SCITEGIC>MOL_PROPERTY
Pdih
SciTegic.value.DoubleValue
2.415

@<SCITEGIC>MOL_PROPERTY
Idih
SciTegic.value.DoubleValue
0.000

@<SCITEGIC>MOL_PROPERTY
Tether
SciTegic.value.DoubleValue
0.000

@<TRIPOS>MOLECULE
guest-s11_confgen4.mol2 : confsearch ligand conformer 57
          20          19           1
SMALL
USER_CHARGES
 
@<TRIPOS>ATOM
       1    N1      21.247440   20.525823   23.783530 N.4        1 MOL1        -0.5919
       2    H1      21.703716   20.647617   24.693816 H          1 MOL1         0.3682
       3    H2      21.230688   21.446992   23.334677 H          1 MOL1         0.3682
       4    H3      20.276113   20.261596   23.967191 H          1 MOL1         0.3682
       5    C1      21.963376   19.496872   22.929558 C.3        1 MOL1         0.0252
       6    H4      22.002088   18.552974   23.479918 H          1 MOL1         0.0971
       7    H5      22.988750   19.852365   22.796167 H          1 MOL1         0.0971
       8    C2      21.328117   19.268583   21.541825 C.3        1 MOL1        -0.1369
       9    H6      21.038690   20.230121   21.097424 H          1 MOL1         0.0997
      10    H7      22.103836   18.854732   20.883906 H          1 MOL1         0.0997
      11    C3      20.127873   18.287182   21.535700 C.3        1 MOL1        -0.1329
      12    H8      20.449578   17.312935   21.929166 H          1 MOL1         0.0997
      13    H9      19.834613   18.112675   20.491179 H          1 MOL1         0.0997
      14    C4      18.892501   18.779805   22.325314 C.3        1 MOL1        -0.1305
      15    H10     19.121713   18.816594   23.397676 H          1 MOL1         0.0997
      16    H11     18.630249   19.799782   22.010972 H          1 MOL1         0.0997
      17    C5      17.676366   17.852684   22.114407 C.3        1 MOL1        -0.2320
      18    H12     16.811779   18.210363   22.688520 H          1 MOL1         0.1008
      19    H13     17.385224   17.816299   21.056515 H          1 MOL1         0.1008
      20    H14     17.898586   16.829036   22.443089 H          1 MOL1         0.1008
@<TRIPOS>BOND
    1     1     2    1
    2     1     3    1
    3     1     4    1
    4     1     5    1
    5     5     6    1
    6     5     7    1
    7     5     8    1
    8     8     9    1
    9     8    10    1
   10     8    11    1
   11    11    12    1
   12    11    13    1
   13    11    14    1
   14    14    15    1
   15    14    16    1
   16    14    17    1
   17    17    18    1
   18    17    19    1
   19    17    20    1
@<TRIPOS>SUBSTRUCTURE
       1 MOL1            1 RESIDUE      1      MOL     
@<SCITEGIC>MOL_PROPERTY
VConf Rank
SciTegic.value.IntegerValue
57

@<SCITEGIC>MOL_PROPERTY
Conf_Id
SciTegic.value.IntegerValue
69

@<SCITEGIC>MOL_PROPERTY
Delta U+W
SciTegic.value.DoubleValue
2.811

@<SCITEGIC>MOL_PROPERTY
U+W
SciTegic.value.DoubleValue
-8.967

@<SCITEGIC>MOL_PROPERTY
Grad RMS
SciTegic.value.DoubleValue
0.000000

@<SCITEGIC>MOL_PROPERTY
U
SciTegic.value.DoubleValue
49.216

@<SCITEGIC>MOL_PROPERTY
W
SciTegic.value.DoubleValue
-58.183

@<SCITEGIC>MOL_PROPERTY
W(PB)
SciTegic.value.DoubleValue
-60.064

@<SCITEGIC>MOL_PROPERTY
W(SA)
SciTegic.value.DoubleValue
1.881

@<SCITEGIC>MOL_PROPERTY
Valence
SciTegic.value.DoubleValue
2.929

@<SCITEGIC>MOL_PROPERTY
Coulomb
SciTegic.value.DoubleValue
46.006

@<SCITEGIC>MOL_PROPERTY
VdW
SciTegic.value.DoubleValue
0.281

@<SCITEGIC>MOL_PROPERTY
VdW6
SciTegic.value.DoubleValue
-4.909

@<SCITEGIC>MOL_PROPERTY
VdW12
SciTegic.value.DoubleValue
5.190

@<SCITEGIC>MOL_PROPERTY
Bond
SciTegic.value.DoubleValue
0.156

@<SCITEGIC>MOL_PROPERTY
Angle
SciTegic.value.DoubleValue
0.974

@<SCITEGIC>MOL_PROPERTY
Pdih
SciTegic.value.DoubleValue
1.799

@<SCITEGIC>MOL_PROPERTY
Idih
SciTegic.value.DoubleValue
0.000

@<SCITEGIC>MOL_PROPERTY
Tether
SciTegic.value.DoubleValue
0.000

@<TRIPOS>MOLECULE
guest-s11_confgen4.mol2 : confsearch ligand conformer 58
          20          19           1
SMALL
USER_CHARGES
 
@<TRIPOS>ATOM
       1    N1      18.661951   17.601405   21.529126 N.4        1 MOL1        -0.5919
       2    H1      19.076888   18.336223   20.950422 H          1 MOL1         0.3682
       3    H2      19.198197   16.744493   21.360471 H          1 MOL1         0.3682
       4    H3      17.715586   17.434443   21.171132 H          1 MOL1         0.3682
       5    C1      18.648506   17.976542   22.998704 C.3        1 MOL1         0.0252
       6    H4      18.180492   17.146224   23.534514 H          1 MOL1         0.0971
       7    H5      18.017410   18.860006   23.127344 H          1 MOL1         0.0971
       8    C2      20.044854   18.237797   23.601562 C.3        1 MOL1        -0.1369
       9    H6      19.971525   18.093552   24.687696 H          1 MOL1         0.0997
      10    H7      20.756400   17.481135   23.245221 H          1 MOL1         0.0997
      11    C3      20.599889   19.663212   23.348780 C.3        1 MOL1        -0.1329
      12    H8      21.534820   19.771315   23.915964 H          1 MOL1         0.0997
      13    H9      19.904001   20.405855   23.763130 H          1 MOL1         0.0997
      14    C4      20.877239   19.989315   21.862494 C.3        1 MOL1        -0.1305
      15    H10     21.485711   19.192505   21.412164 H          1 MOL1         0.0997
      16    H11     19.933335   20.035000   21.304990 H          1 MOL1         0.0997
      17    C5      21.607490   21.340063   21.703651 C.3        1 MOL1        -0.2320
      18    H12     22.579268   21.327022   22.214239 H          1 MOL1         0.1008
      19    H13     21.788043   21.561084   20.643650 H          1 MOL1         0.1008
      20    H14     21.012468   22.162193   22.122366 H          1 MOL1         0.1008
@<TRIPOS>BOND
    1     1     2    1
    2     1     3    1
    3     1     4    1
    4     1     5    1
    5     5     6    1
    6     5     7    1
    7     5     8    1
    8     8     9    1
    9     8    10    1
   10     8    11    1
   11    11    12    1
   12    11    13    1
   13    11    14    1
   14    14    15    1
   15    14    16    1
   16    14    17    1
   17    17    18    1
   18    17    19    1
   19    17    20    1
@<TRIPOS>SUBSTRUCTURE
       1 MOL1            1 RESIDUE      1      MOL     
@<SCITEGIC>MOL_PROPERTY
VConf Rank
SciTegic.value.IntegerValue
58

@<SCITEGIC>MOL_PROPERTY
Conf_Id
SciTegic.value.IntegerValue
26

@<SCITEGIC>MOL_PROPERTY
Delta U+W
SciTegic.value.DoubleValue
2.809

@<SCITEGIC>MOL_PROPERTY
U+W
SciTegic.value.DoubleValue
-8.969

@<SCITEGIC>MOL_PROPERTY
Grad RMS
SciTegic.value.DoubleValue
0.000000

@<SCITEGIC>MOL_PROPERTY
U
SciTegic.value.DoubleValue
49.216

@<SCITEGIC>MOL_PROPERTY
W
SciTegic.value.DoubleValue
-58.185

@<SCITEGIC>MOL_PROPERTY
W(PB)
SciTegic.value.DoubleValue
-60.088

@<SCITEGIC>MOL_PROPERTY
W(SA)
SciTegic.value.DoubleValue
1.903

@<SCITEGIC>MOL_PROPERTY
Valence
SciTegic.value.DoubleValue
2.929

@<SCITEGIC>MOL_PROPERTY
Coulomb
SciTegic.value.DoubleValue
46.006

@<SCITEGIC>MOL_PROPERTY
VdW
SciTegic.value.DoubleValue
0.281

@<SCITEGIC>MOL_PROPERTY
VdW6
SciTegic.value.DoubleValue
-4.909

@<SCITEGIC>MOL_PROPERTY
VdW12
SciTegic.value.DoubleValue
5.190

@<SCITEGIC>MOL_PROPERTY
Bond
SciTegic.value.DoubleValue
0.156

@<SCITEGIC>MOL_PROPERTY
Angle
SciTegic.value.DoubleValue
0.974

@<SCITEGIC>MOL_PROPERTY
Pdih
SciTegic.value.DoubleValue
1.799

@<SCITEGIC>MOL_PROPERTY
Idih
SciTegic.value.DoubleValue
0.000

@<SCITEGIC>MOL_PROPERTY
Tether
SciTegic.value.DoubleValue
0.000

@<TRIPOS>MOLECULE
guest-s11_confgen4.mol2 : confsearch ligand conformer 59
          20          19           1
SMALL
USER_CHARGES
 
@<TRIPOS>ATOM
       1    N1      17.928093   19.611401   23.366479 N.4        1 MOL1        -0.5919
       2    H1      17.947492   19.999792   22.419001 H          1 MOL1         0.3682
       3    H2      17.257507   18.836588   23.362426 H          1 MOL1         0.3682
       4    H3      17.542815   20.336309   23.980790 H          1 MOL1         0.3682
       5    C1      19.304619   19.163292   23.817449 C.3        1 MOL1         0.0252
       6    H4      19.214772   18.791231   24.841660 H          1 MOL1         0.0971
       7    H5      19.959506   20.038432   23.831007 H          1 MOL1         0.0971
       8    C2      19.921759   18.066020   22.926705 C.3        1 MOL1        -0.1369
       9    H6      20.876123   17.748835   23.366154 H          1 MOL1         0.0997
      10    H7      19.273627   17.179938   22.947236 H          1 MOL1         0.0997
      11    C3      20.145425   18.500860   21.454332 C.3        1 MOL1        -0.1329
      12    H8      19.172374   18.660192   20.970603 H          1 MOL1         0.0997
      13    H9      20.615888   17.671504   20.908408 H          1 MOL1         0.0997
      14    C4      21.009084   19.775862   21.276868 C.3        1 MOL1        -0.1305
      15    H10     21.083453   20.002480   20.204038 H          1 MOL1         0.0997
      16    H11     20.509066   20.640667   21.733586 H          1 MOL1         0.0997
      17    C5      22.435276   19.635680   21.855806 C.3        1 MOL1        -0.2320
      18    H12     22.951792   18.767144   21.427065 H          1 MOL1         0.1008
      19    H13     23.032549   20.527767   21.627045 H          1 MOL1         0.1008
      20    H14     22.417653   19.521399   22.946783 H          1 MOL1         0.1008
@<TRIPOS>BOND
    1     1     2    1
    2     1     3    1
    3     1     4    1
    4     1     5    1
    5     5     6    1
    6     5     7    1
    7     5     8    1
    8     8     9    1
    9     8    10    1
   10     8    11    1
   11    11    12    1
   12    11    13    1
   13    11    14    1
   14    14    15    1
   15    14    16    1
   16    14    17    1
   17    17    18    1
   18    17    19    1
   19    17    20    1
@<TRIPOS>SUBSTRUCTURE
       1 MOL1            1 RESIDUE      1      MOL     
@<SCITEGIC>MOL_PROPERTY
VConf Rank
SciTegic.value.IntegerValue
59

@<SCITEGIC>MOL_PROPERTY
Conf_Id
SciTegic.value.IntegerValue
2

@<SCITEGIC>MOL_PROPERTY
Delta U+W
SciTegic.value.DoubleValue
0.994

@<SCITEGIC>MOL_PROPERTY
U+W
SciTegic.value.DoubleValue
-10.784

@<SCITEGIC>MOL_PROPERTY
Grad RMS
SciTegic.value.DoubleValue
0.000000

@<SCITEGIC>MOL_PROPERTY
U
SciTegic.value.DoubleValue
47.562

@<SCITEGIC>MOL_PROPERTY
W
SciTegic.value.DoubleValue
-58.346

@<SCITEGIC>MOL_PROPERTY
W(PB)
SciTegic.value.DoubleValue
-60.221

@<SCITEGIC>MOL_PROPERTY
W(SA)
SciTegic.value.DoubleValue
1.875

@<SCITEGIC>MOL_PROPERTY
Valence
SciTegic.value.DoubleValue
2.149

@<SCITEGIC>MOL_PROPERTY
Coulomb
SciTegic.value.DoubleValue
45.034

@<SCITEGIC>MOL_PROPERTY
VdW
SciTegic.value.DoubleValue
0.378

@<SCITEGIC>MOL_PROPERTY
VdW6
SciTegic.value.DoubleValue
-5.599

@<SCITEGIC>MOL_PROPERTY
VdW12
SciTegic.value.DoubleValue
5.977

@<SCITEGIC>MOL_PROPERTY
Bond
SciTegic.value.DoubleValue
0.185

@<SCITEGIC>MOL_PROPERTY
Angle
SciTegic.value.DoubleValue
0.935

@<SCITEGIC>MOL_PROPERTY
Pdih
SciTegic.value.DoubleValue
1.028

@<SCITEGIC>MOL_PROPERTY
Idih
SciTegic.value.DoubleValue
0.000

@<SCITEGIC>MOL_PROPERTY
Tether
SciTegic.value.DoubleValue
0.000

@<TRIPOS>MOLECULE
guest-s11_confgen4.mol2 : confsearch ligand conformer 60
          20          19           1
SMALL
USER_CHARGES
 
@<TRIPOS>ATOM
       1    N1      18.460355   20.073725   23.856576 N.4        1 MOL1        -0.5919
       2    H1      17.825744   19.434645   24.345332 H          1 MOL1         0.3682
       3    H2      19.334419   20.098797   24.389797 H          1 MOL1         0.3682
       4    H3      18.045260   21.009428   23.915437 H          1 MOL1         0.3682
       5    C1      18.691763   19.648909   22.419573 C.3        1 MOL1         0.0252
       6    H4      19.346731   20.386401   21.948346 H          1 MOL1         0.0971
       7    H5      17.727202   19.674480   21.905300 H          1 MOL1         0.0971
       8    C2      19.308459   18.242228   22.280927 C.3        1 MOL1        -0.1369
       9    H6      18.627135   17.505720   22.727012 H          1 MOL1         0.0997
      10    H7      19.369691   17.986247   21.215442 H          1 MOL1         0.0997
      11    C3      20.709734   18.101146   22.931708 C.3        1 MOL1        -0.1329
      12    H8      21.080808   17.082277   22.754487 H          1 MOL1         0.0997
      13    H9      20.615563   18.197068   24.021726 H          1 MOL1         0.0997
      14    C4      21.766124   19.117529   22.427683 C.3        1 MOL1        -0.1305
      15    H10     21.460209   20.141515   22.681387 H          1 MOL1         0.0997
      16    H11     22.707319   18.941622   22.967180 H          1 MOL1         0.0997
      17    C5      22.036917   19.018059   20.909257 C.3        1 MOL1        -0.2320
      18    H12     21.152613   19.297753   20.323272 H          1 MOL1         0.1008
      19    H13     22.852224   19.693276   20.619011 H          1 MOL1         0.1008
      20    H14     22.328941   17.998450   20.626273 H          1 MOL1         0.1008
@<TRIPOS>BOND
    1     1     2    1
    2     1     3    1
    3     1     4    1
    4     1     5    1
    5     5     6    1
    6     5     7    1
    7     5     8    1
    8     8     9    1
    9     8    10    1
   10     8    11    1
   11    11    12    1
   12    11    13    1
   13    11    14    1
   14    14    15    1
   15    14    16    1
   16    14    17    1
   17    17    18    1
   18    17    19    1
   19    17    20    1
@<TRIPOS>SUBSTRUCTURE
       1 MOL1            1 RESIDUE      1      MOL     
@<SCITEGIC>MOL_PROPERTY
VConf Rank
SciTegic.value.IntegerValue
60

@<SCITEGIC>MOL_PROPERTY
Conf_Id
SciTegic.value.IntegerValue
1

@<SCITEGIC>MOL_PROPERTY
Delta U+W
SciTegic.value.DoubleValue
1.032

@<SCITEGIC>MOL_PROPERTY
U+W
SciTegic.value.DoubleValue
-10.746

@<SCITEGIC>MOL_PROPERTY
Grad RMS
SciTegic.value.DoubleValue
0.000000

@<SCITEGIC>MOL_PROPERTY
U
SciTegic.value.DoubleValue
47.562

@<SCITEGIC>MOL_PROPERTY
W
SciTegic.value.DoubleValue
-58.308

@<SCITEGIC>MOL_PROPERTY
W(PB)
SciTegic.value.DoubleValue
-60.184

@<SCITEGIC>MOL_PROPERTY
W(SA)
SciTegic.value.DoubleValue
1.877

@<SCITEGIC>MOL_PROPERTY
Valence
SciTegic.value.DoubleValue
2.149

@<SCITEGIC>MOL_PROPERTY
Coulomb
SciTegic.value.DoubleValue
45.035

@<SCITEGIC>MOL_PROPERTY
VdW
SciTegic.value.DoubleValue
0.378

@<SCITEGIC>MOL_PROPERTY
VdW6
SciTegic.value.DoubleValue
-5.599

@<SCITEGIC>MOL_PROPERTY
VdW12
SciTegic.value.DoubleValue
5.978

@<SCITEGIC>MOL_PROPERTY
Bond
SciTegic.value.DoubleValue
0.185

@<SCITEGIC>MOL_PROPERTY
Angle
SciTegic.value.DoubleValue
0.935

@<SCITEGIC>MOL_PROPERTY
Pdih
SciTegic.value.DoubleValue
1.028

@<SCITEGIC>MOL_PROPERTY
Idih
SciTegic.value.DoubleValue
0.000

@<SCITEGIC>MOL_PROPERTY
Tether
SciTegic.value.DoubleValue
0.000

@<TRIPOS>MOLECULE
guest-s11_confgen4.mol2 : confsearch ligand conformer 61
          20          19           1
SMALL
USER_CHARGES
 
@<TRIPOS>ATOM
       1    N1      18.870961   17.330131   21.857991 N.4        1 MOL1        -0.5919
       2    H1      17.853838   17.448918   21.895933 H          1 MOL1         0.3682
       3    H2      19.198615   17.795231   21.006517 H          1 MOL1         0.3682
       4    H3      19.049673   16.327500   21.739082 H          1 MOL1         0.3682
       5    C1      19.550081   17.879930   23.097456 C.3        1 MOL1         0.0252
       6    H4      20.621106   17.693321   23.004700 H          1 MOL1         0.0971
       7    H5      19.182385   17.308536   23.954096 H          1 MOL1         0.0971
       8    C2      19.285172   19.381228   23.339621 C.3        1 MOL1        -0.1369
       9    H6      18.199567   19.527187   23.416934 H          1 MOL1         0.0997
      10    H7      19.697214   19.670375   24.315446 H          1 MOL1         0.0997
      11    C3      19.841405   20.324888   22.239424 C.3        1 MOL1        -0.1329
      12    H8      19.264367   21.259350   22.274533 H          1 MOL1         0.0997
      13    H9      19.658660   19.906335   21.241355 H          1 MOL1         0.0997
      14    C4      21.338372   20.699345   22.390769 C.3        1 MOL1        -0.1305
      15    H10     21.588705   21.437390   21.615804 H          1 MOL1         0.0997
      16    H11     21.498451   21.205325   23.353131 H          1 MOL1         0.0997
      17    C5      22.314883   19.508878   22.267708 C.3        1 MOL1        -0.2320
      18    H12     22.106059   18.912510   21.370213 H          1 MOL1         0.1008
      19    H13     23.349300   19.869342   22.197167 H          1 MOL1         0.1008
      20    H14     22.260473   18.855041   23.146111 H          1 MOL1         0.1008
@<TRIPOS>BOND
    1     1     2    1
    2     1     3    1
    3     1     4    1
    4     1     5    1
    5     5     6    1
    6     5     7    1
    7     5     8    1
    8     8     9    1
    9     8    10    1
   10     8    11    1
   11    11    12    1
   12    11    13    1
   13    11    14    1
   14    14    15    1
   15    14    16    1
   16    14    17    1
   17    17    18    1
   18    17    19    1
   19    17    20    1
@<TRIPOS>SUBSTRUCTURE
       1 MOL1            1 RESIDUE      1      MOL     
@<SCITEGIC>MOL_PROPERTY
VConf Rank
SciTegic.value.IntegerValue
61

@<SCITEGIC>MOL_PROPERTY
Conf_Id
SciTegic.value.IntegerValue
80

@<SCITEGIC>MOL_PROPERTY
Delta U+W
SciTegic.value.DoubleValue
2.920

@<SCITEGIC>MOL_PROPERTY
U+W
SciTegic.value.DoubleValue
-8.857

@<SCITEGIC>MOL_PROPERTY
Grad RMS
SciTegic.value.DoubleValue
0.000000

@<SCITEGIC>MOL_PROPERTY
U
SciTegic.value.DoubleValue
49.434

@<SCITEGIC>MOL_PROPERTY
W
SciTegic.value.DoubleValue
-58.292

@<SCITEGIC>MOL_PROPERTY
W(PB)
SciTegic.value.DoubleValue
-60.170

@<SCITEGIC>MOL_PROPERTY
W(SA)
SciTegic.value.DoubleValue
1.879

@<SCITEGIC>MOL_PROPERTY
Valence
SciTegic.value.DoubleValue
3.798

@<SCITEGIC>MOL_PROPERTY
Coulomb
SciTegic.value.DoubleValue
45.253

@<SCITEGIC>MOL_PROPERTY
VdW
SciTegic.value.DoubleValue
0.384

@<SCITEGIC>MOL_PROPERTY
VdW6
SciTegic.value.DoubleValue
-5.595

@<SCITEGIC>MOL_PROPERTY
VdW12
SciTegic.value.DoubleValue
5.979

@<SCITEGIC>MOL_PROPERTY
Bond
SciTegic.value.DoubleValue
0.198

@<SCITEGIC>MOL_PROPERTY
Angle
SciTegic.value.DoubleValue
1.368

@<SCITEGIC>MOL_PROPERTY
Pdih
SciTegic.value.DoubleValue
2.231

@<SCITEGIC>MOL_PROPERTY
Idih
SciTegic.value.DoubleValue
0.000

@<SCITEGIC>MOL_PROPERTY
Tether
SciTegic.value.DoubleValue
0.000

@<TRIPOS>MOLECULE
guest-s11_confgen4.mol2 : confsearch ligand conformer 62
          20          19           1
SMALL
USER_CHARGES
 
@<TRIPOS>ATOM
       1    N1      20.982941   17.389867   23.733584 N.4        1 MOL1        -0.5919
       2    H1      21.643315   17.565788   24.497160 H          1 MOL1         0.3682
       3    H2      20.653080   16.425008   23.841217 H          1 MOL1         0.3682
       4    H3      21.514119   17.428384   22.858911 H          1 MOL1         0.3682
       5    C1      19.835355   18.381210   23.740168 C.3        1 MOL1         0.0252
       6    H4      19.294380   18.250983   24.681396 H          1 MOL1         0.0971
       7    H5      19.158999   18.117897   22.925475 H          1 MOL1         0.0971
       8    C2      20.282180   19.853264   23.613157 C.3        1 MOL1        -0.1369
       9    H6      19.414288   20.510362   23.756698 H          1 MOL1         0.0997
      10    H7      20.966480   20.074090   24.443090 H          1 MOL1         0.0997
      11    C3      20.986087   20.205502   22.274960 C.3        1 MOL1        -0.1329
      12    H8      21.684402   19.410414   21.983563 H          1 MOL1         0.0997
      13    H9      21.609784   21.093739   22.446601 H          1 MOL1         0.0997
      14    C4      20.032022   20.530546   21.096763 C.3        1 MOL1        -0.1305
      15    H10     19.399577   21.390429   21.358288 H          1 MOL1         0.0997
      16    H11     20.640386   20.852204   20.239804 H          1 MOL1         0.0997
      17    C5      19.138307   19.352954   20.649015 C.3        1 MOL1        -0.2320
      18    H12     18.356314   19.141463   21.387805 H          1 MOL1         0.1008
      19    H13     18.633445   19.594414   19.704695 H          1 MOL1         0.1008
      20    H14     19.729068   18.441731   20.489529 H          1 MOL1         0.1008
@<TRIPOS>BOND
    1     1     2    1
    2     1     3    1
    3     1     4    1
    4     1     5    1
    5     5     6    1
    6     5     7    1
    7     5     8    1
    8     8     9    1
    9     8    10    1
   10     8    11    1
   11    11    12    1
   12    11    13    1
   13    11    14    1
   14    14    15    1
   15    14    16    1
   16    14    17    1
   17    17    18    1
   18    17    19    1
   19    17    20    1
@<TRIPOS>SUBSTRUCTURE
       1 MOL1            1 RESIDUE      1      MOL     
@<SCITEGIC>MOL_PROPERTY
VConf Rank
SciTegic.value.IntegerValue
62

@<SCITEGIC>MOL_PROPERTY
Conf_Id
SciTegic.value.IntegerValue
65

@<SCITEGIC>MOL_PROPERTY
Delta U+W
SciTegic.value.DoubleValue
2.949

@<SCITEGIC>MOL_PROPERTY
U+W
SciTegic.value.DoubleValue
-8.829

@<SCITEGIC>MOL_PROPERTY
Grad RMS
SciTegic.value.DoubleValue
0.000000

@<SCITEGIC>MOL_PROPERTY
U
SciTegic.value.DoubleValue
49.435

@<SCITEGIC>MOL_PROPERTY
W
SciTegic.value.DoubleValue
-58.263

@<SCITEGIC>MOL_PROPERTY
W(PB)
SciTegic.value.DoubleValue
-60.125

@<SCITEGIC>MOL_PROPERTY
W(SA)
SciTegic.value.DoubleValue
1.862

@<SCITEGIC>MOL_PROPERTY
Valence
SciTegic.value.DoubleValue
3.797

@<SCITEGIC>MOL_PROPERTY
Coulomb
SciTegic.value.DoubleValue
45.253

@<SCITEGIC>MOL_PROPERTY
VdW
SciTegic.value.DoubleValue
0.384

@<SCITEGIC>MOL_PROPERTY
VdW6
SciTegic.value.DoubleValue
-5.596

@<SCITEGIC>MOL_PROPERTY
VdW12
SciTegic.value.DoubleValue
5.980

@<SCITEGIC>MOL_PROPERTY
Bond
SciTegic.value.DoubleValue
0.198

@<SCITEGIC>MOL_PROPERTY
Angle
SciTegic.value.DoubleValue
1.369

@<SCITEGIC>MOL_PROPERTY
Pdih
SciTegic.value.DoubleValue
2.230

@<SCITEGIC>MOL_PROPERTY
Idih
SciTegic.value.DoubleValue
0.000

@<SCITEGIC>MOL_PROPERTY
Tether
SciTegic.value.DoubleValue
0.000

@<TRIPOS>MOLECULE
guest-s11_confgen4.mol2 : confsearch ligand conformer 63
          20          19           1
SMALL
USER_CHARGES
 
@<TRIPOS>ATOM
       1    N1      21.966814   19.812157   22.795518 N.4        1 MOL1        -0.5919
       2    H1      22.655668   19.749949   23.552678 H          1 MOL1         0.3682
       3    H2      21.742312   18.855089   22.506823 H          1 MOL1         0.3682
       4    H3      22.433393   20.267746   22.004854 H          1 MOL1         0.3682
       5    C1      20.723339   20.566201   23.225334 C.3        1 MOL1         0.0252
       6    H4      21.043049   21.571109   23.514237 H          1 MOL1         0.0971
       7    H5      20.304043   20.076760   24.108419 H          1 MOL1         0.0971
       8    C2      19.646583   20.676893   22.126811 C.3        1 MOL1        -0.1369
       9    H6      19.017652   21.545612   22.362574 H          1 MOL1         0.0997
      10    H7      20.120814   20.904883   21.162999 H          1 MOL1         0.0997
      11    C3      18.715484   19.442680   21.986692 C.3        1 MOL1        -0.1329
      12    H8      17.970823   19.679445   21.214068 H          1 MOL1         0.0997
      13    H9      18.141501   19.299570   22.912721 H          1 MOL1         0.0997
      14    C4      19.417806   18.120139   21.586507 C.3        1 MOL1        -0.1305
      15    H10     18.745267   17.552081   20.928282 H          1 MOL1         0.0997
      16    H11     20.313325   18.327108   20.985280 H          1 MOL1         0.0997
      17    C5      19.760533   17.222914   22.799496 C.3        1 MOL1        -0.2320
      18    H12     20.374105   17.740886   23.544365 H          1 MOL1         0.1008
      19    H13     18.844182   16.888916   23.303547 H          1 MOL1         0.1008
      20    H14     20.304734   16.326079   22.475901 H          1 MOL1         0.1008
@<TRIPOS>BOND
    1     1     2    1
    2     1     3    1
    3     1     4    1
    4     1     5    1
    5     5     6    1
    6     5     7    1
    7     5     8    1
    8     8     9    1
    9     8    10    1
   10     8    11    1
   11    11    12    1
   12    11    13    1
   13    11    14    1
   14    14    15    1
   15    14    16    1
   16    14    17    1
   17    17    18    1
   18    17    19    1
   19    17    20    1
@<TRIPOS>SUBSTRUCTURE
       1 MOL1            1 RESIDUE      1      MOL     
@<SCITEGIC>MOL_PROPERTY
VConf Rank
SciTegic.value.IntegerValue
63

@<SCITEGIC>MOL_PROPERTY
Conf_Id
SciTegic.value.IntegerValue
77

@<SCITEGIC>MOL_PROPERTY
Delta U+W
SciTegic.value.DoubleValue
5.366

@<SCITEGIC>MOL_PROPERTY
U+W
SciTegic.value.DoubleValue
-6.412

@<SCITEGIC>MOL_PROPERTY
Grad RMS
SciTegic.value.DoubleValue
0.000000

@<SCITEGIC>MOL_PROPERTY
U
SciTegic.value.DoubleValue
51.542

@<SCITEGIC>MOL_PROPERTY
W
SciTegic.value.DoubleValue
-57.954

@<SCITEGIC>MOL_PROPERTY
W(PB)
SciTegic.value.DoubleValue
-59.811

@<SCITEGIC>MOL_PROPERTY
W(SA)
SciTegic.value.DoubleValue
1.857

@<SCITEGIC>MOL_PROPERTY
Valence
SciTegic.value.DoubleValue
5.347

@<SCITEGIC>MOL_PROPERTY
Coulomb
SciTegic.value.DoubleValue
45.870

@<SCITEGIC>MOL_PROPERTY
VdW
SciTegic.value.DoubleValue
0.325

@<SCITEGIC>MOL_PROPERTY
VdW6
SciTegic.value.DoubleValue
-6.161

@<SCITEGIC>MOL_PROPERTY
VdW12
SciTegic.value.DoubleValue
6.486

@<SCITEGIC>MOL_PROPERTY
Bond
SciTegic.value.DoubleValue
0.201

@<SCITEGIC>MOL_PROPERTY
Angle
SciTegic.value.DoubleValue
1.484

@<SCITEGIC>MOL_PROPERTY
Pdih
SciTegic.value.DoubleValue
3.662

@<SCITEGIC>MOL_PROPERTY
Idih
SciTegic.value.DoubleValue
0.000

@<SCITEGIC>MOL_PROPERTY
Tether
SciTegic.value.DoubleValue
0.000

@<TRIPOS>MOLECULE
guest-s11_confgen4.mol2 : confsearch ligand conformer 64
          20          19           1
SMALL
USER_CHARGES
 
@<TRIPOS>ATOM
       1    N1      19.990219   17.151146   21.897390 N.4        1 MOL1        -0.5919
       2    H1      20.446422   16.903463   21.013683 H          1 MOL1         0.3682
       3    H2      20.725245   17.443487   22.548542 H          1 MOL1         0.3682
       4    H3      19.575390   16.290578   22.270248 H          1 MOL1         0.3682
       5    C1      18.952950   18.241125   21.708761 C.3        1 MOL1         0.0252
       6    H4      18.453577   18.419349   22.664828 H          1 MOL1         0.0971
       7    H5      18.210067   17.856689   21.004592 H          1 MOL1         0.0971
       8    C2      19.526689   19.564380   21.162655 C.3        1 MOL1        -0.1369
       9    H6      20.252790   19.354145   20.366170 H          1 MOL1         0.0997
      10    H7      18.704973   20.110406   20.680524 H          1 MOL1         0.0997
      11    C3      20.156790   20.501523   22.227830 C.3        1 MOL1        -0.1329
      12    H8      19.390184   20.817857   22.948741 H          1 MOL1         0.0997
      13    H9      20.470901   21.419761   21.712370 H          1 MOL1         0.0997
      14    C4      21.386472   19.927414   22.976697 C.3        1 MOL1        -0.1305
      15    H10     21.928125   19.216751   22.338080 H          1 MOL1         0.0997
      16    H11     22.092386   20.747426   23.170413 H          1 MOL1         0.0997
      17    C5      21.024197   19.284800   24.336706 C.3        1 MOL1        -0.2320
      18    H12     21.913488   18.843378   24.805203 H          1 MOL1         0.1008
      19    H13     20.628220   20.040751   25.027404 H          1 MOL1         0.1008
      20    H14     20.266790   18.499440   24.241122 H          1 MOL1         0.1008
@<TRIPOS>BOND
    1     1     2    1
    2     1     3    1
    3     1     4    1
    4     1     5    1
    5     5     6    1
    6     5     7    1
    7     5     8    1
    8     8     9    1
    9     8    10    1
   10     8    11    1
   11    11    12    1
   12    11    13    1
   13    11    14    1
   14    14    15    1
   15    14    16    1
   16    14    17    1
   17    17    18    1
   18    17    19    1
   19    17    20    1
@<TRIPOS>SUBSTRUCTURE
       1 MOL1            1 RESIDUE      1      MOL     
@<SCITEGIC>MOL_PROPERTY
VConf Rank
SciTegic.value.IntegerValue
64

@<SCITEGIC>MOL_PROPERTY
Conf_Id
SciTegic.value.IntegerValue
67

@<SCITEGIC>MOL_PROPERTY
Delta U+W
SciTegic.value.DoubleValue
5.353

@<SCITEGIC>MOL_PROPERTY
U+W
SciTegic.value.DoubleValue
-6.425

@<SCITEGIC>MOL_PROPERTY
Grad RMS
SciTegic.value.DoubleValue
0.000000

@<SCITEGIC>MOL_PROPERTY
U
SciTegic.value.DoubleValue
51.541

@<SCITEGIC>MOL_PROPERTY
W
SciTegic.value.DoubleValue
-57.966

@<SCITEGIC>MOL_PROPERTY
W(PB)
SciTegic.value.DoubleValue
-59.821

@<SCITEGIC>MOL_PROPERTY
W(SA)
SciTegic.value.DoubleValue
1.855

@<SCITEGIC>MOL_PROPERTY
Valence
SciTegic.value.DoubleValue
5.347

@<SCITEGIC>MOL_PROPERTY
Coulomb
SciTegic.value.DoubleValue
45.870

@<SCITEGIC>MOL_PROPERTY
VdW
SciTegic.value.DoubleValue
0.325

@<SCITEGIC>MOL_PROPERTY
VdW6
SciTegic.value.DoubleValue
-6.161

@<SCITEGIC>MOL_PROPERTY
VdW12
SciTegic.value.DoubleValue
6.486

@<SCITEGIC>MOL_PROPERTY
Bond
SciTegic.value.DoubleValue
0.201

@<SCITEGIC>MOL_PROPERTY
Angle
SciTegic.value.DoubleValue
1.485

@<SCITEGIC>MOL_PROPERTY
Pdih
SciTegic.value.DoubleValue
3.662

@<SCITEGIC>MOL_PROPERTY
Idih
SciTegic.value.DoubleValue
0.000

@<SCITEGIC>MOL_PROPERTY
Tether
SciTegic.value.DoubleValue
0.000

@<TRIPOS>MOLECULE
guest-s11_confgen4.mol2 : confsearch ligand conformer 65
          20          19           1
SMALL
USER_CHARGES
 
@<TRIPOS>ATOM
       1    N1      18.294658   19.039660   25.089074 N.4        1 MOL1        -0.5919
       2    H1      18.836869   18.353997   25.624109 H          1 MOL1         0.3682
       3    H2      17.913506   19.709933   25.765133 H          1 MOL1         0.3682
       4    H3      17.496551   18.541526   24.682534 H          1 MOL1         0.3682
       5    C1      19.134634   19.724301   24.029737 C.3        1 MOL1         0.0252
       6    H4      19.944956   20.257663   24.534138 H          1 MOL1         0.0971
       7    H5      18.504082   20.459106   23.521818 H          1 MOL1         0.0971
       8    C2      19.722716   18.745178   22.997873 C.3        1 MOL1        -0.1369
       9    H6      20.342228   17.999622   23.514031 H          1 MOL1         0.0997
      10    H7      18.906322   18.200358   22.505187 H          1 MOL1         0.0997
      11    C3      20.570742   19.482231   21.937526 C.3        1 MOL1        -0.1329
      12    H8      21.383388   20.030448   22.434371 H          1 MOL1         0.0997
      13    H9      19.949189   20.230888   21.426669 H          1 MOL1         0.0997
      14    C4      21.166559   18.508784   20.895921 C.3        1 MOL1        -0.1305
      15    H10     21.790806   17.759327   21.402555 H          1 MOL1         0.0997
      16    H11     20.356822   17.959808   20.394924 H          1 MOL1         0.0997
      17    C5      22.013025   19.249551   19.838690 C.3        1 MOL1        -0.2320
      18    H12     22.852338   19.780843   20.306127 H          1 MOL1         0.1008
      19    H13     22.427262   18.542175   19.108571 H          1 MOL1         0.1008
      20    H14     21.407138   19.982788   19.290531 H          1 MOL1         0.1008
@<TRIPOS>BOND
    1     1     2    1
    2     1     3    1
    3     1     4    1
    4     1     5    1
    5     5     6    1
    6     5     7    1
    7     5     8    1
    8     8     9    1
    9     8    10    1
   10     8    11    1
   11    11    12    1
   12    11    13    1
   13    11    14    1
   14    14    15    1
   15    14    16    1
   16    14    17    1
   17    17    18    1
   18    17    19    1
   19    17    20    1
@<TRIPOS>SUBSTRUCTURE
       1 MOL1            1 RESIDUE      1      MOL     
@<SCITEGIC>MOL_PROPERTY
VConf Rank
SciTegic.value.IntegerValue
65

@<SCITEGIC>MOL_PROPERTY
Conf_Id
SciTegic.value.IntegerValue
72

@<SCITEGIC>MOL_PROPERTY
Delta U+W
SciTegic.value.DoubleValue
0.000

@<SCITEGIC>MOL_PROPERTY
U+W
SciTegic.value.DoubleValue
-11.778

@<SCITEGIC>MOL_PROPERTY
Grad RMS
SciTegic.value.DoubleValue
0.000000

@<SCITEGIC>MOL_PROPERTY
U
SciTegic.value.DoubleValue
45.772

@<SCITEGIC>MOL_PROPERTY
W
SciTegic.value.DoubleValue
-57.550

@<SCITEGIC>MOL_PROPERTY
W(PB)
SciTegic.value.DoubleValue
-59.511

@<SCITEGIC>MOL_PROPERTY
W(SA)
SciTegic.value.DoubleValue
1.961

@<SCITEGIC>MOL_PROPERTY
Valence
SciTegic.value.DoubleValue
1.299

@<SCITEGIC>MOL_PROPERTY
Coulomb
SciTegic.value.DoubleValue
44.177

@<SCITEGIC>MOL_PROPERTY
VdW
SciTegic.value.DoubleValue
0.297

@<SCITEGIC>MOL_PROPERTY
VdW6
SciTegic.value.DoubleValue
-3.490

@<SCITEGIC>MOL_PROPERTY
VdW12
SciTegic.value.DoubleValue
3.786

@<SCITEGIC>MOL_PROPERTY
Bond
SciTegic.value.DoubleValue
0.096

@<SCITEGIC>MOL_PROPERTY
Angle
SciTegic.value.DoubleValue
0.381

@<SCITEGIC>MOL_PROPERTY
Pdih
SciTegic.value.DoubleValue
0.822

@<SCITEGIC>MOL_PROPERTY
Idih
SciTegic.value.DoubleValue
0.000

@<SCITEGIC>MOL_PROPERTY
Tether
SciTegic.value.DoubleValue
0.000

@<TRIPOS>MOLECULE
guest-s11_confgen4.mol2 : confsearch ligand conformer 66
          20          19           1
SMALL
USER_CHARGES
 
@<TRIPOS>ATOM
       1    N1      17.956035   17.095778   22.188654 N.4        1 MOL1        -0.5919
       2    H1      18.569354   16.374547   22.581085 H          1 MOL1         0.3682
       3    H2      17.347644   17.419388   22.947271 H          1 MOL1         0.3682
       4    H3      17.352850   16.631313   21.501615 H          1 MOL1         0.3682
       5    C1      18.742912   18.233161   21.569171 C.3        1 MOL1         0.0252
       6    H4      18.029609   18.945637   21.146004 H          1 MOL1         0.0971
       7    H5      19.343451   17.822855   20.752771 H          1 MOL1         0.0971
       8    C2      19.659351   18.953207   22.574626 C.3        1 MOL1        -0.1369
       9    H6      19.054202   19.349784   23.400660 H          1 MOL1         0.0997
      10    H7      20.358656   18.225752   23.005728 H          1 MOL1         0.0997
      11    C3      20.440019   20.106217   21.900643 C.3        1 MOL1        -0.1329
      12    H8      19.726268   20.782491   21.409771 H          1 MOL1         0.0997
      13    H9      21.080890   19.703305   21.104068 H          1 MOL1         0.0997
      14    C4      21.299773   20.931004   22.889187 C.3        1 MOL1        -0.1305
      15    H10     21.733259   21.785778   22.351236 H          1 MOL1         0.0997
      16    H11     20.658937   21.355847   23.674499 H          1 MOL1         0.0997
      17    C5      22.444097   20.117360   23.535744 C.3        1 MOL1        -0.2320
      18    H12     23.083726   19.658262   22.770814 H          1 MOL1         0.1008
      19    H13     23.075805   20.767820   24.154451 H          1 MOL1         0.1008
      20    H14     22.057192   19.321390   24.183941 H          1 MOL1         0.1008
@<TRIPOS>BOND
    1     1     2    1
    2     1     3    1
    3     1     4    1
    4     1     5    1
    5     5     6    1
    6     5     7    1
    7     5     8    1
    8     8     9    1
    9     8    10    1
   10     8    11    1
   11    11    12    1
   12    11    13    1
   13    11    14    1
   14    14    15    1
   15    14    16    1
   16    14    17    1
   17    17    18    1
   18    17    19    1
   19    17    20    1
@<TRIPOS>SUBSTRUCTURE
       1 MOL1            1 RESIDUE      1      MOL     
@<SCITEGIC>MOL_PROPERTY
VConf Rank
SciTegic.value.IntegerValue
66

@<SCITEGIC>MOL_PROPERTY
Conf_Id
SciTegic.value.IntegerValue
42

@<SCITEGIC>MOL_PROPERTY
Delta U+W
SciTegic.value.DoubleValue
0.508

@<SCITEGIC>MOL_PROPERTY
U+W
SciTegic.value.DoubleValue
-11.270

@<SCITEGIC>MOL_PROPERTY
Grad RMS
SciTegic.value.DoubleValue
0.000000

@<SCITEGIC>MOL_PROPERTY
U
SciTegic.value.DoubleValue
46.486

@<SCITEGIC>MOL_PROPERTY
W
SciTegic.value.DoubleValue
-57.756

@<SCITEGIC>MOL_PROPERTY
W(PB)
SciTegic.value.DoubleValue
-59.705

@<SCITEGIC>MOL_PROPERTY
W(SA)
SciTegic.value.DoubleValue
1.949

@<SCITEGIC>MOL_PROPERTY
Valence
SciTegic.value.DoubleValue
1.806

@<SCITEGIC>MOL_PROPERTY
Coulomb
SciTegic.value.DoubleValue
44.248

@<SCITEGIC>MOL_PROPERTY
VdW
SciTegic.value.DoubleValue
0.433

@<SCITEGIC>MOL_PROPERTY
VdW6
SciTegic.value.DoubleValue
-4.089

@<SCITEGIC>MOL_PROPERTY
VdW12
SciTegic.value.DoubleValue
4.522

@<SCITEGIC>MOL_PROPERTY
Bond
SciTegic.value.DoubleValue
0.131

@<SCITEGIC>MOL_PROPERTY
Angle
SciTegic.value.DoubleValue
0.628

@<SCITEGIC>MOL_PROPERTY
Pdih
SciTegic.value.DoubleValue
1.047

@<SCITEGIC>MOL_PROPERTY
Idih
SciTegic.value.DoubleValue
0.000

@<SCITEGIC>MOL_PROPERTY
Tether
SciTegic.value.DoubleValue
0.000

@<TRIPOS>MOLECULE
guest-s11_confgen4.mol2 : confsearch ligand conformer 67
          20          19           1
SMALL
USER_CHARGES
 
@<TRIPOS>ATOM
       1    N1      20.628674   17.949030   19.729685 N.4        1 MOL1        -0.5919
       2    H1      21.634259   17.774854   19.823635 H          1 MOL1         0.3682
       3    H2      20.147871   17.077047   19.972189 H          1 MOL1         0.3682
       4    H3      20.448557   18.120979   18.734912 H          1 MOL1         0.3682
       5    C1      20.171264   19.107440   20.593076 C.3        1 MOL1         0.0252
       6    H4      19.101633   19.255011   20.420971 H          1 MOL1         0.0971
       7    H5      20.699432   20.005177   20.260506 H          1 MOL1         0.0971
       8    C2      20.427747   18.881885   22.093946 C.3        1 MOL1        -0.1369
       9    H6      19.908035   17.969453   22.412435 H          1 MOL1         0.0997
      10    H7      21.500809   18.718380   22.260125 H          1 MOL1         0.0997
      11    C3      19.948265   20.088120   22.935509 C.3        1 MOL1        -0.1329
      12    H8      18.865536   20.223389   22.805174 H          1 MOL1         0.0997
      13    H9      20.421693   21.002708   22.551922 H          1 MOL1         0.0997
      14    C4      20.275983   19.959088   24.443031 C.3        1 MOL1        -0.1305
      15    H10     21.360781   19.847544   24.579589 H          1 MOL1         0.0997
      16    H11     19.998299   20.896172   24.945726 H          1 MOL1         0.0997
      17    C5      19.541932   18.787062   25.133725 C.3        1 MOL1        -0.2320
      18    H12     19.877010   17.816781   24.746812 H          1 MOL1         0.1008
      19    H13     19.736197   18.795521   26.214068 H          1 MOL1         0.1008
      20    H14     18.456364   18.859773   24.987883 H          1 MOL1         0.1008
@<TRIPOS>BOND
    1     1     2    1
    2     1     3    1
    3     1     4    1
    4     1     5    1
    5     5     6    1
    6     5     7    1
    7     5     8    1
    8     8     9    1
    9     8    10    1
   10     8    11    1
   11    11    12    1
   12    11    13    1
   13    11    14    1
   14    14    15    1
   15    14    16    1
   16    14    17    1
   17    17    18    1
   18    17    19    1
   19    17    20    1
@<TRIPOS>SUBSTRUCTURE
       1 MOL1            1 RESIDUE      1      MOL     
@<SCITEGIC>MOL_PROPERTY
VConf Rank
SciTegic.value.IntegerValue
67

@<SCITEGIC>MOL_PROPERTY
Conf_Id
SciTegic.value.IntegerValue
41

@<SCITEGIC>MOL_PROPERTY
Delta U+W
SciTegic.value.DoubleValue
0.515

@<SCITEGIC>MOL_PROPERTY
U+W
SciTegic.value.DoubleValue
-11.263

@<SCITEGIC>MOL_PROPERTY
Grad RMS
SciTegic.value.DoubleValue
0.000000

@<SCITEGIC>MOL_PROPERTY
U
SciTegic.value.DoubleValue
46.486

@<SCITEGIC>MOL_PROPERTY
W
SciTegic.value.DoubleValue
-57.749

@<SCITEGIC>MOL_PROPERTY
W(PB)
SciTegic.value.DoubleValue
-59.685

@<SCITEGIC>MOL_PROPERTY
W(SA)
SciTegic.value.DoubleValue
1.936

@<SCITEGIC>MOL_PROPERTY
Valence
SciTegic.value.DoubleValue
1.806

@<SCITEGIC>MOL_PROPERTY
Coulomb
SciTegic.value.DoubleValue
44.248

@<SCITEGIC>MOL_PROPERTY
VdW
SciTegic.value.DoubleValue
0.433

@<SCITEGIC>MOL_PROPERTY
VdW6
SciTegic.value.DoubleValue
-4.089

@<SCITEGIC>MOL_PROPERTY
VdW12
SciTegic.value.DoubleValue
4.522

@<SCITEGIC>MOL_PROPERTY
Bond
SciTegic.value.DoubleValue
0.131

@<SCITEGIC>MOL_PROPERTY
Angle
SciTegic.value.DoubleValue
0.628

@<SCITEGIC>MOL_PROPERTY
Pdih
SciTegic.value.DoubleValue
1.047

@<SCITEGIC>MOL_PROPERTY
Idih
SciTegic.value.DoubleValue
0.000

@<SCITEGIC>MOL_PROPERTY
Tether
SciTegic.value.DoubleValue
0.000

@<TRIPOS>MOLECULE
guest-s11_confgen4.mol2 : confsearch ligand conformer 68
          20          19           1
SMALL
USER_CHARGES
 
@<TRIPOS>ATOM
       1    N1      20.461001   17.373182   24.579097 N.4        1 MOL1        -0.5919
       2    H1      20.721746   17.166830   25.549115 H          1 MOL1         0.3682
       3    H2      19.449429   17.533116   24.569977 H          1 MOL1         0.3682
       4    H3      20.638091   16.522473   24.035842 H          1 MOL1         0.3682
       5    C1      21.226329   18.562603   24.031633 C.3        1 MOL1         0.0252
       6    H4      22.292771   18.335819   24.114510 H          1 MOL1         0.0971
       7    H5      21.012386   19.426315   24.666985 H          1 MOL1         0.0971
       8    C2      20.890121   18.900944   22.565905 C.3        1 MOL1        -0.1369
       9    H6      21.575973   19.690738   22.235088 H          1 MOL1         0.0997
      10    H7      21.089456   18.026134   21.932925 H          1 MOL1         0.0997
      11    C3      19.424490   19.368605   22.380610 C.3        1 MOL1        -0.1329
      12    H8      19.238992   20.257535   22.999368 H          1 MOL1         0.0997
      13    H9      18.743107   18.589489   22.747082 H          1 MOL1         0.0997
      14    C4      19.057477   19.677871   20.908660 C.3        1 MOL1        -0.1305
      15    H10     19.228379   18.787302   20.287737 H          1 MOL1         0.0997
      16    H11     17.980487   19.889423   20.851405 H          1 MOL1         0.0997
      17    C5      19.831441   20.879299   20.319327 C.3        1 MOL1        -0.2320
      18    H12     20.904838   20.668251   20.238403 H          1 MOL1         0.1008
      19    H13     19.465739   21.114297   19.311365 H          1 MOL1         0.1008
      20    H14     19.702275   21.775521   20.939896 H          1 MOL1         0.1008
@<TRIPOS>BOND
    1     1     2    1
    2     1     3    1
    3     1     4    1
    4     1     5    1
    5     5     6    1
    6     5     7    1
    7     5     8    1
    8     8     9    1
    9     8    10    1
   10     8    11    1
   11    11    12    1
   12    11    13    1
   13    11    14    1
   14    14    15    1
   15    14    16    1
   16    14    17    1
   17    17    18    1
   18    17    19    1
   19    17    20    1
@<TRIPOS>SUBSTRUCTURE
       1 MOL1            1 RESIDUE      1      MOL     
@<SCITEGIC>MOL_PROPERTY
VConf Rank
SciTegic.value.IntegerValue
68

@<SCITEGIC>MOL_PROPERTY
Conf_Id
SciTegic.value.IntegerValue
33

@<SCITEGIC>MOL_PROPERTY
Delta U+W
SciTegic.value.DoubleValue
0.703

@<SCITEGIC>MOL_PROPERTY
U+W
SciTegic.value.DoubleValue
-11.075

@<SCITEGIC>MOL_PROPERTY
Grad RMS
SciTegic.value.DoubleValue
0.000000

@<SCITEGIC>MOL_PROPERTY
U
SciTegic.value.DoubleValue
47.080

@<SCITEGIC>MOL_PROPERTY
W
SciTegic.value.DoubleValue
-58.154

@<SCITEGIC>MOL_PROPERTY
W(PB)
SciTegic.value.DoubleValue
-60.053

@<SCITEGIC>MOL_PROPERTY
W(SA)
SciTegic.value.DoubleValue
1.899

@<SCITEGIC>MOL_PROPERTY
Valence
SciTegic.value.DoubleValue
1.943

@<SCITEGIC>MOL_PROPERTY
Coulomb
SciTegic.value.DoubleValue
44.572

@<SCITEGIC>MOL_PROPERTY
VdW
SciTegic.value.DoubleValue
0.565

@<SCITEGIC>MOL_PROPERTY
VdW6
SciTegic.value.DoubleValue
-4.575

@<SCITEGIC>MOL_PROPERTY
VdW12
SciTegic.value.DoubleValue
5.139

@<SCITEGIC>MOL_PROPERTY
Bond
SciTegic.value.DoubleValue
0.158

@<SCITEGIC>MOL_PROPERTY
Angle
SciTegic.value.DoubleValue
0.700

@<SCITEGIC>MOL_PROPERTY
Pdih
SciTegic.value.DoubleValue
1.085

@<SCITEGIC>MOL_PROPERTY
Idih
SciTegic.value.DoubleValue
0.000

@<SCITEGIC>MOL_PROPERTY
Tether
SciTegic.value.DoubleValue
0.000

@<TRIPOS>MOLECULE
guest-s11_confgen4.mol2 : confsearch ligand conformer 69
          20          19           1
SMALL
USER_CHARGES
 
@<TRIPOS>ATOM
       1    N1      22.402277   19.735987   20.981261 N.4        1 MOL1        -0.5919
       2    H1      23.389619   19.597138   20.741724 H          1 MOL1         0.3682
       3    H2      21.931994   20.058921   20.129944 H          1 MOL1         0.3682
       4    H3      22.364876   20.504074   21.657709 H          1 MOL1         0.3682
       5    C1      21.772645   18.469465   21.528662 C.3        1 MOL1         0.0252
       6    H4      22.333092   18.167888   22.417702 H          1 MOL1         0.0971
       7    H5      21.889794   17.688654   20.772215 H          1 MOL1         0.0971
       8    C2      20.279482   18.616282   21.881889 C.3        1 MOL1        -0.1369
       9    H6      19.722047   18.936027   20.991540 H          1 MOL1         0.0997
      10    H7      19.896732   17.624399   22.152589 H          1 MOL1         0.0997
      11    C3      20.034793   19.607984   23.047124 C.3        1 MOL1        -0.1329
      12    H8      20.452117   20.589342   22.785619 H          1 MOL1         0.0997
      13    H9      20.577298   19.269544   23.940777 H          1 MOL1         0.0997
      14    C4      18.537318   19.796346   23.392180 C.3        1 MOL1        -0.1305
      15    H10     18.446761   20.593496   24.143374 H          1 MOL1         0.0997
      16    H11     17.992548   20.148019   22.504814 H          1 MOL1         0.0997
      17    C5      17.865439   18.517311   23.942098 C.3        1 MOL1        -0.2320
      18    H12     18.410106   18.127350   24.811738 H          1 MOL1         0.1008
      19    H13     16.836413   18.730387   24.259356 H          1 MOL1         0.1008
      20    H14     17.818101   17.727121   23.182736 H          1 MOL1         0.1008
@<TRIPOS>BOND
    1     1     2    1
    2     1     3    1
    3     1     4    1
    4     1     5    1
    5     5     6    1
    6     5     7    1
    7     5     8    1
    8     8     9    1
    9     8    10    1
   10     8    11    1
   11    11    12    1
   12    11    13    1
   13    11    14    1
   14    14    15    1
   15    14    16    1
   16    14    17    1
   17    17    18    1
   18    17    19    1
   19    17    20    1
@<TRIPOS>SUBSTRUCTURE
       1 MOL1            1 RESIDUE      1      MOL     
@<SCITEGIC>MOL_PROPERTY
VConf Rank
SciTegic.value.IntegerValue
69

@<SCITEGIC>MOL_PROPERTY
Conf_Id
SciTegic.value.IntegerValue
24

@<SCITEGIC>MOL_PROPERTY
Delta U+W
SciTegic.value.DoubleValue
0.847

@<SCITEGIC>MOL_PROPERTY
U+W
SciTegic.value.DoubleValue
-10.931

@<SCITEGIC>MOL_PROPERTY
Grad RMS
SciTegic.value.DoubleValue
0.000000

@<SCITEGIC>MOL_PROPERTY
U
SciTegic.value.DoubleValue
47.080

@<SCITEGIC>MOL_PROPERTY
W
SciTegic.value.DoubleValue
-58.011

@<SCITEGIC>MOL_PROPERTY
W(PB)
SciTegic.value.DoubleValue
-59.914

@<SCITEGIC>MOL_PROPERTY
W(SA)
SciTegic.value.DoubleValue
1.903

@<SCITEGIC>MOL_PROPERTY
Valence
SciTegic.value.DoubleValue
1.943

@<SCITEGIC>MOL_PROPERTY
Coulomb
SciTegic.value.DoubleValue
44.572

@<SCITEGIC>MOL_PROPERTY
VdW
SciTegic.value.DoubleValue
0.565

@<SCITEGIC>MOL_PROPERTY
VdW6
SciTegic.value.DoubleValue
-4.575

@<SCITEGIC>MOL_PROPERTY
VdW12
SciTegic.value.DoubleValue
5.140

@<SCITEGIC>MOL_PROPERTY
Bond
SciTegic.value.DoubleValue
0.158

@<SCITEGIC>MOL_PROPERTY
Angle
SciTegic.value.DoubleValue
0.700

@<SCITEGIC>MOL_PROPERTY
Pdih
SciTegic.value.DoubleValue
1.085

@<SCITEGIC>MOL_PROPERTY
Idih
SciTegic.value.DoubleValue
0.000

@<SCITEGIC>MOL_PROPERTY
Tether
SciTegic.value.DoubleValue
0.000

@<TRIPOS>MOLECULE
guest-s11_confgen4.mol2 : confsearch ligand conformer 70
          20          19           1
SMALL
USER_CHARGES
 
@<TRIPOS>ATOM
       1    N1      20.646972   19.699587   19.838350 N.4        1 MOL1        -0.5919
       2    H1      21.328189   20.361521   19.451988 H          1 MOL1         0.3682
       3    H2      21.040183   18.761483   19.713573 H          1 MOL1         0.3682
       4    H3      19.810507   19.756455   19.248943 H          1 MOL1         0.3682
       5    C1      20.336485   19.995061   21.291836 C.3        1 MOL1         0.0252
       6    H4      19.950516   21.016093   21.354283 H          1 MOL1         0.0971
       7    H5      21.273979   19.946837   21.851982 H          1 MOL1         0.0971
       8    C2      19.315593   19.017213   21.903570 C.3        1 MOL1        -0.1369
       9    H6      18.392867   19.043040   21.308869 H          1 MOL1         0.0997
      10    H7      19.698059   17.990950   21.833150 H          1 MOL1         0.0997
      11    C3      18.970452   19.354240   23.375740 C.3        1 MOL1        -0.1329
      12    H8      18.232100   18.628471   23.743651 H          1 MOL1         0.0997
      13    H9      18.473915   20.333910   23.410230 H          1 MOL1         0.0997
      14    C4      20.183921   19.375992   24.340232 C.3        1 MOL1        -0.1305
      15    H10     20.885672   20.169634   24.049620 H          1 MOL1         0.0997
      16    H11     19.827723   19.642443   25.345224 H          1 MOL1         0.0997
      17    C5      20.930708   18.025017   24.418874 C.3        1 MOL1        -0.2320
      18    H12     21.719587   18.065616   25.181059 H          1 MOL1         0.1008
      19    H13     20.245943   17.210340   24.687898 H          1 MOL1         0.1008
      20    H14     21.407912   17.772387   23.463840 H          1 MOL1         0.1008
@<TRIPOS>BOND
    1     1     2    1
    2     1     3    1
    3     1     4    1
    4     1     5    1
    5     5     6    1
    6     5     7    1
    7     5     8    1
    8     8     9    1
    9     8    10    1
   10     8    11    1
   11    11    12    1
   12    11    13    1
   13    11    14    1
   14    14    15    1
   15    14    16    1
   16    14    17    1
   17    17    18    1
   18    17    19    1
   19    17    20    1
@<TRIPOS>SUBSTRUCTURE
       1 MOL1            1 RESIDUE      1      MOL     
@<SCITEGIC>MOL_PROPERTY
VConf Rank
SciTegic.value.IntegerValue
70

@<SCITEGIC>MOL_PROPERTY
Conf_Id
SciTegic.value.IntegerValue
64

@<SCITEGIC>MOL_PROPERTY
Delta U+W
SciTegic.value.DoubleValue
0.707

@<SCITEGIC>MOL_PROPERTY
U+W
SciTegic.value.DoubleValue
-11.070

@<SCITEGIC>MOL_PROPERTY
Grad RMS
SciTegic.value.DoubleValue
0.000000

@<SCITEGIC>MOL_PROPERTY
U
SciTegic.value.DoubleValue
47.077

@<SCITEGIC>MOL_PROPERTY
W
SciTegic.value.DoubleValue
-58.148

@<SCITEGIC>MOL_PROPERTY
W(PB)
SciTegic.value.DoubleValue
-60.054

@<SCITEGIC>MOL_PROPERTY
W(SA)
SciTegic.value.DoubleValue
1.906

@<SCITEGIC>MOL_PROPERTY
Valence
SciTegic.value.DoubleValue
2.039

@<SCITEGIC>MOL_PROPERTY
Coulomb
SciTegic.value.DoubleValue
44.655

@<SCITEGIC>MOL_PROPERTY
VdW
SciTegic.value.DoubleValue
0.383

@<SCITEGIC>MOL_PROPERTY
VdW6
SciTegic.value.DoubleValue
-4.912

@<SCITEGIC>MOL_PROPERTY
VdW12
SciTegic.value.DoubleValue
5.295

@<SCITEGIC>MOL_PROPERTY
Bond
SciTegic.value.DoubleValue
0.159

@<SCITEGIC>MOL_PROPERTY
Angle
SciTegic.value.DoubleValue
0.856

@<SCITEGIC>MOL_PROPERTY
Pdih
SciTegic.value.DoubleValue
1.024

@<SCITEGIC>MOL_PROPERTY
Idih
SciTegic.value.DoubleValue
0.000

@<SCITEGIC>MOL_PROPERTY
Tether
SciTegic.value.DoubleValue
0.000

@<TRIPOS>MOLECULE
guest-s11_confgen4.mol2 : confsearch ligand conformer 71
          20          19           1
SMALL
USER_CHARGES
 
@<TRIPOS>ATOM
       1    N1      20.868613   20.991113   24.328122 N.4        1 MOL1        -0.5919
       2    H1      21.831470   21.333576   24.251097 H          1 MOL1         0.3682
       3    H2      20.266384   21.678630   23.864589 H          1 MOL1         0.3682
       4    H3      20.626403   21.007182   25.324397 H          1 MOL1         0.3682
       5    C1      20.710796   19.606717   23.732414 C.3        1 MOL1         0.0252
       6    H4      19.672911   19.295364   23.876771 H          1 MOL1         0.0971
       7    H5      21.355942   18.922922   24.290616 H          1 MOL1         0.0971
       8    C2      21.066681   19.548044   22.234908 C.3        1 MOL1        -0.1369
       9    H6      20.425811   20.240908   21.674836 H          1 MOL1         0.0997
      10    H7      22.096897   19.902015   22.096630 H          1 MOL1         0.0997
      11    C3      20.945827   18.120467   21.645489 C.3        1 MOL1        -0.1329
      12    H8      21.684438   17.469522   22.133564 H          1 MOL1         0.0997
      13    H9      21.224066   18.149059   20.582932 H          1 MOL1         0.0997
      14    C4      19.543162   17.475249   21.784949 C.3        1 MOL1        -0.1305
      15    H10     19.577872   16.465123   21.353297 H          1 MOL1         0.0997
      16    H11     19.291005   17.340573   22.845634 H          1 MOL1         0.0997
      17    C5      18.424726   18.278356   21.082719 C.3        1 MOL1        -0.2320
      18    H12     18.662996   18.444621   20.024154 H          1 MOL1         0.1008
      19    H13     17.472574   17.734298   21.130804 H          1 MOL1         0.1008
      20    H14     18.270644   19.254893   21.558399 H          1 MOL1         0.1008
@<TRIPOS>BOND
    1     1     2    1
    2     1     3    1
    3     1     4    1
    4     1     5    1
    5     5     6    1
    6     5     7    1
    7     5     8    1
    8     8     9    1
    9     8    10    1
   10     8    11    1
   11    11    12    1
   12    11    13    1
   13    11    14    1
   14    14    15    1
   15    14    16    1
   16    14    17    1
   17    17    18    1
   18    17    19    1
   19    17    20    1
@<TRIPOS>SUBSTRUCTURE
       1 MOL1            1 RESIDUE      1      MOL     
@<SCITEGIC>MOL_PROPERTY
VConf Rank
SciTegic.value.IntegerValue
71

@<SCITEGIC>MOL_PROPERTY
Conf_Id
SciTegic.value.IntegerValue
22

@<SCITEGIC>MOL_PROPERTY
Delta U+W
SciTegic.value.DoubleValue
0.731

@<SCITEGIC>MOL_PROPERTY
U+W
SciTegic.value.DoubleValue
-11.047

@<SCITEGIC>MOL_PROPERTY
Grad RMS
SciTegic.value.DoubleValue
0.000000

@<SCITEGIC>MOL_PROPERTY
U
SciTegic.value.DoubleValue
47.078

@<SCITEGIC>MOL_PROPERTY
W
SciTegic.value.DoubleValue
-58.125

@<SCITEGIC>MOL_PROPERTY
W(PB)
SciTegic.value.DoubleValue
-60.031

@<SCITEGIC>MOL_PROPERTY
W(SA)
SciTegic.value.DoubleValue
1.906

@<SCITEGIC>MOL_PROPERTY
Valence
SciTegic.value.DoubleValue
2.039

@<SCITEGIC>MOL_PROPERTY
Coulomb
SciTegic.value.DoubleValue
44.655

@<SCITEGIC>MOL_PROPERTY
VdW
SciTegic.value.DoubleValue
0.383

@<SCITEGIC>MOL_PROPERTY
VdW6
SciTegic.value.DoubleValue
-4.913

@<SCITEGIC>MOL_PROPERTY
VdW12
SciTegic.value.DoubleValue
5.296

@<SCITEGIC>MOL_PROPERTY
Bond
SciTegic.value.DoubleValue
0.159

@<SCITEGIC>MOL_PROPERTY
Angle
SciTegic.value.DoubleValue
0.856

@<SCITEGIC>MOL_PROPERTY
Pdih
SciTegic.value.DoubleValue
1.024

@<SCITEGIC>MOL_PROPERTY
Idih
SciTegic.value.DoubleValue
0.000

@<SCITEGIC>MOL_PROPERTY
Tether
SciTegic.value.DoubleValue
0.000

@<TRIPOS>MOLECULE
guest-s11_confgen4.mol2 : confsearch ligand conformer 72
          20          19           1
SMALL
USER_CHARGES
 
@<TRIPOS>ATOM
       1    N1      22.226807   17.402789   22.788747 N.4        1 MOL1        -0.5919
       2    H1      21.774439   16.648118   23.314265 H          1 MOL1         0.3682
       3    H2      22.537850   17.004381   21.897213 H          1 MOL1         0.3682
       4    H3      23.071525   17.662501   23.308837 H          1 MOL1         0.3682
       5    C1      21.302183   18.586635   22.588269 C.3        1 MOL1         0.0252
       6    H4      21.854940   19.360067   22.048216 H          1 MOL1         0.0971
       7    H5      21.038907   18.972614   23.575676 H          1 MOL1         0.0971
       8    C2      20.020803   18.228190   21.814800 C.3        1 MOL1        -0.1369
       9    H6      20.302046   17.731843   20.876469 H          1 MOL1         0.0997
      10    H7      19.439112   17.496002   22.390405 H          1 MOL1         0.0997
      11    C3      19.129377   19.449699   21.475408 C.3        1 MOL1        -0.1329
      12    H8      18.300431   19.089422   20.850427 H          1 MOL1         0.0997
      13    H9      19.684783   20.161848   20.849534 H          1 MOL1         0.0997
      14    C4      18.522249   20.176535   22.703535 C.3        1 MOL1        -0.1305
      15    H10     17.574647   20.640622   22.395679 H          1 MOL1         0.0997
      16    H11     18.261862   19.450299   23.486172 H          1 MOL1         0.0997
      17    C5      19.426575   21.289371   23.283731 C.3        1 MOL1        -0.2320
      18    H12     20.359415   20.893287   23.698222 H          1 MOL1         0.1008
      19    H13     19.682629   22.029601   22.514641 H          1 MOL1         0.1008
      20    H14     18.908026   21.818789   24.093549 H          1 MOL1         0.1008
@<TRIPOS>BOND
    1     1     2    1
    2     1     3    1
    3     1     4    1
    4     1     5    1
    5     5     6    1
    6     5     7    1
    7     5     8    1
    8     8     9    1
    9     8    10    1
   10     8    11    1
   11    11    12    1
   12    11    13    1
   13    11    14    1
   14    14    15    1
   15    14    16    1
   16    14    17    1
   17    17    18    1
   18    17    19    1
   19    17    20    1
@<TRIPOS>SUBSTRUCTURE
       1 MOL1            1 RESIDUE      1      MOL     
@<SCITEGIC>MOL_PROPERTY
VConf Rank
SciTegic.value.IntegerValue
72

@<SCITEGIC>MOL_PROPERTY
Conf_Id
SciTegic.value.IntegerValue
61

@<SCITEGIC>MOL_PROPERTY
Delta U+W
SciTegic.value.DoubleValue
2.669

@<SCITEGIC>MOL_PROPERTY
U+W
SciTegic.value.DoubleValue
-9.108

@<SCITEGIC>MOL_PROPERTY
Grad RMS
SciTegic.value.DoubleValue
0.000000

@<SCITEGIC>MOL_PROPERTY
U
SciTegic.value.DoubleValue
48.916

@<SCITEGIC>MOL_PROPERTY
W
SciTegic.value.DoubleValue
-58.025

@<SCITEGIC>MOL_PROPERTY
W(PB)
SciTegic.value.DoubleValue
-59.935

@<SCITEGIC>MOL_PROPERTY
W(SA)
SciTegic.value.DoubleValue
1.911

@<SCITEGIC>MOL_PROPERTY
Valence
SciTegic.value.DoubleValue
3.785

@<SCITEGIC>MOL_PROPERTY
Coulomb
SciTegic.value.DoubleValue
44.716

@<SCITEGIC>MOL_PROPERTY
VdW
SciTegic.value.DoubleValue
0.415

@<SCITEGIC>MOL_PROPERTY
VdW6
SciTegic.value.DoubleValue
-4.836

@<SCITEGIC>MOL_PROPERTY
VdW12
SciTegic.value.DoubleValue
5.251

@<SCITEGIC>MOL_PROPERTY
Bond
SciTegic.value.DoubleValue
0.175

@<SCITEGIC>MOL_PROPERTY
Angle
SciTegic.value.DoubleValue
1.195

@<SCITEGIC>MOL_PROPERTY
Pdih
SciTegic.value.DoubleValue
2.415

@<SCITEGIC>MOL_PROPERTY
Idih
SciTegic.value.DoubleValue
0.000

@<SCITEGIC>MOL_PROPERTY
Tether
SciTegic.value.DoubleValue
0.000

@<TRIPOS>MOLECULE
guest-s11_confgen4.mol2 : confsearch ligand conformer 73
          20          19           1
SMALL
USER_CHARGES
 
@<TRIPOS>ATOM
       1    N1      19.224862   17.233654   21.354439 N.4        1 MOL1        -0.5919
       2    H1      18.398388   16.630916   21.281703 H          1 MOL1         0.3682
       3    H2      19.946609   16.820709   20.755390 H          1 MOL1         0.3682
       4    H3      19.559823   17.169254   22.319156 H          1 MOL1         0.3682
       5    C1      18.913864   18.663804   20.956291 C.3        1 MOL1         0.0252
       6    H4      18.100908   19.032602   21.587502 H          1 MOL1         0.0971
       7    H5      18.553866   18.635385   19.924228 H          1 MOL1         0.0971
       8    C2      20.119042   19.624030   21.039884 C.3        1 MOL1        -0.1369
       9    H6      21.017494   19.136429   20.638830 H          1 MOL1         0.0997
      10    H7      19.915539   20.473419   20.374304 H          1 MOL1         0.0997
      11    C3      20.397062   20.187935   22.457094 C.3        1 MOL1        -0.1329
      12    H8      19.507948   20.722475   22.819324 H          1 MOL1         0.0997
      13    H9      21.193353   20.940712   22.375075 H          1 MOL1         0.0997
      14    C4      20.819966   19.125491   23.498572 C.3        1 MOL1        -0.1305
      15    H10     19.981557   18.449378   23.707839 H          1 MOL1         0.0997
      16    H11     21.641182   18.514994   23.097525 H          1 MOL1         0.0997
      17    C5      21.268908   19.776393   24.824391 C.3        1 MOL1        -0.2320
      18    H12     21.556231   19.009381   25.555272 H          1 MOL1         0.1008
      19    H13     22.134518   20.433603   24.669416 H          1 MOL1         0.1008
      20    H14     20.460178   20.374467   25.264314 H          1 MOL1         0.1008
@<TRIPOS>BOND
    1     1     2    1
    2     1     3    1
    3     1     4    1
    4     1     5    1
    5     5     6    1
    6     5     7    1
    7     5     8    1
    8     8     9    1
    9     8    10    1
   10     8    11    1
   11    11    12    1
   12    11    13    1
   13    11    14    1
   14    14    15    1
   15    14    16    1
   16    14    17    1
   17    17    18    1
   18    17    19    1
   19    17    20    1
@<TRIPOS>SUBSTRUCTURE
       1 MOL1            1 RESIDUE      1      MOL     
@<SCITEGIC>MOL_PROPERTY
VConf Rank
SciTegic.value.IntegerValue
73

@<SCITEGIC>MOL_PROPERTY
Conf_Id
SciTegic.value.IntegerValue
69

@<SCITEGIC>MOL_PROPERTY
Delta U+W
SciTegic.value.DoubleValue
2.811

@<SCITEGIC>MOL_PROPERTY
U+W
SciTegic.value.DoubleValue
-8.967

@<SCITEGIC>MOL_PROPERTY
Grad RMS
SciTegic.value.DoubleValue
0.000000

@<SCITEGIC>MOL_PROPERTY
U
SciTegic.value.DoubleValue
49.216

@<SCITEGIC>MOL_PROPERTY
W
SciTegic.value.DoubleValue
-58.183

@<SCITEGIC>MOL_PROPERTY
W(PB)
SciTegic.value.DoubleValue
-60.064

@<SCITEGIC>MOL_PROPERTY
W(SA)
SciTegic.value.DoubleValue
1.881

@<SCITEGIC>MOL_PROPERTY
Valence
SciTegic.value.DoubleValue
2.929

@<SCITEGIC>MOL_PROPERTY
Coulomb
SciTegic.value.DoubleValue
46.006

@<SCITEGIC>MOL_PROPERTY
VdW
SciTegic.value.DoubleValue
0.281

@<SCITEGIC>MOL_PROPERTY
VdW6
SciTegic.value.DoubleValue
-4.909

@<SCITEGIC>MOL_PROPERTY
VdW12
SciTegic.value.DoubleValue
5.190

@<SCITEGIC>MOL_PROPERTY
Bond
SciTegic.value.DoubleValue
0.156

@<SCITEGIC>MOL_PROPERTY
Angle
SciTegic.value.DoubleValue
0.974

@<SCITEGIC>MOL_PROPERTY
Pdih
SciTegic.value.DoubleValue
1.799

@<SCITEGIC>MOL_PROPERTY
Idih
SciTegic.value.DoubleValue
0.000

@<SCITEGIC>MOL_PROPERTY
Tether
SciTegic.value.DoubleValue
0.000

@<TRIPOS>MOLECULE
guest-s11_confgen4.mol2 : confsearch ligand conformer 74
          20          19           1
SMALL
USER_CHARGES
 
@<TRIPOS>ATOM
       1    N1      21.537731   17.929885   23.692882 N.4        1 MOL1        -0.5919
       2    H1      21.694735   18.926561   23.522545 H          1 MOL1         0.3682
       3    H2      21.146043   17.842148   24.635849 H          1 MOL1         0.3682
       4    H3      22.458466   17.478705   23.710932 H          1 MOL1         0.3682
       5    C1      20.629779   17.311831   22.646842 C.3        1 MOL1         0.0252
       6    H4      20.529101   16.252671   22.899036 H          1 MOL1         0.0971
       7    H5      21.121612   17.381822   21.672912 H          1 MOL1         0.0971
       8    C2      19.224127   17.944140   22.570634 C.3        1 MOL1        -0.1369
       9    H6      18.550177   17.205266   22.117062 H          1 MOL1         0.0997
      10    H7      18.836527   18.123369   23.582295 H          1 MOL1         0.0997
      11    C3      19.145350   19.240625   21.724058 C.3        1 MOL1        -0.1329
      12    H8      18.089105   19.533025   21.644516 H          1 MOL1         0.0997
      13    H9      19.481598   19.029765   20.699392 H          1 MOL1         0.0997
      14    C4      19.950856   20.430460   22.296565 C.3        1 MOL1        -0.1305
      15    H10     19.696950   20.578780   23.355563 H          1 MOL1         0.0997
      16    H11     21.025771   20.216669   22.244587 H          1 MOL1         0.0997
      17    C5      19.670917   21.733566   21.517739 C.3        1 MOL1        -0.2320
      18    H12     18.609825   22.009129   21.575784 H          1 MOL1         0.1008
      19    H13     20.256889   22.565298   21.929940 H          1 MOL1         0.1008
      20    H14     19.938513   21.625669   20.458484 H          1 MOL1         0.1008
@<TRIPOS>BOND
    1     1     2    1
    2     1     3    1
    3     1     4    1
    4     1     5    1
    5     5     6    1
    6     5     7    1
    7     5     8    1
    8     8     9    1
    9     8    10    1
   10     8    11    1
   11    11    12    1
   12    11    13    1
   13    11    14    1
   14    14    15    1
   15    14    16    1
   16    14    17    1
   17    17    18    1
   18    17    19    1
   19    17    20    1
@<TRIPOS>SUBSTRUCTURE
       1 MOL1            1 RESIDUE      1      MOL     
@<SCITEGIC>MOL_PROPERTY
VConf Rank
SciTegic.value.IntegerValue
74

@<SCITEGIC>MOL_PROPERTY
Conf_Id
SciTegic.value.IntegerValue
26

@<SCITEGIC>MOL_PROPERTY
Delta U+W
SciTegic.value.DoubleValue
2.809

@<SCITEGIC>MOL_PROPERTY
U+W
SciTegic.value.DoubleValue
-8.969

@<SCITEGIC>MOL_PROPERTY
Grad RMS
SciTegic.value.DoubleValue
0.000000

@<SCITEGIC>MOL_PROPERTY
U
SciTegic.value.DoubleValue
49.216

@<SCITEGIC>MOL_PROPERTY
W
SciTegic.value.DoubleValue
-58.185

@<SCITEGIC>MOL_PROPERTY
W(PB)
SciTegic.value.DoubleValue
-60.088

@<SCITEGIC>MOL_PROPERTY
W(SA)
SciTegic.value.DoubleValue
1.903

@<SCITEGIC>MOL_PROPERTY
Valence
SciTegic.value.DoubleValue
2.929

@<SCITEGIC>MOL_PROPERTY
Coulomb
SciTegic.value.DoubleValue
46.006

@<SCITEGIC>MOL_PROPERTY
VdW
SciTegic.value.DoubleValue
0.281

@<SCITEGIC>MOL_PROPERTY
VdW6
SciTegic.value.DoubleValue
-4.909

@<SCITEGIC>MOL_PROPERTY
VdW12
SciTegic.value.DoubleValue
5.190

@<SCITEGIC>MOL_PROPERTY
Bond
SciTegic.value.DoubleValue
0.156

@<SCITEGIC>MOL_PROPERTY
Angle
SciTegic.value.DoubleValue
0.974

@<SCITEGIC>MOL_PROPERTY
Pdih
SciTegic.value.DoubleValue
1.799

@<SCITEGIC>MOL_PROPERTY
Idih
SciTegic.value.DoubleValue
0.000

@<SCITEGIC>MOL_PROPERTY
Tether
SciTegic.value.DoubleValue
0.000

@<TRIPOS>MOLECULE
guest-s11_confgen4.mol2 : confsearch ligand conformer 75
          20          19           1
SMALL
USER_CHARGES
 
@<TRIPOS>ATOM
       1    N1      20.942355   20.835883   20.903366 N.4        1 MOL1        -0.5919
       2    H1      21.509111   20.917400   21.752531 H          1 MOL1         0.3682
       3    H2      21.563047   20.512315   20.154979 H          1 MOL1         0.3682
       4    H3      20.639834   21.782698   20.651708 H          1 MOL1         0.3682
       5    C1      19.764647   19.901860   21.102371 C.3        1 MOL1         0.0252
       6    H4      19.190253   19.887306   20.172119 H          1 MOL1         0.0971
       7    H5      19.128388   20.319469   21.887043 H          1 MOL1         0.0971
       8    C2      20.171910   18.461839   21.474887 C.3        1 MOL1        -0.1369
       9    H6      19.268755   17.840184   21.523756 H          1 MOL1         0.0997
      10    H7      20.782015   18.040209   20.665172 H          1 MOL1         0.0997
      11    C3      20.951959   18.352960   22.811549 C.3        1 MOL1        -0.1329
      12    H8      21.930000   18.840524   22.702353 H          1 MOL1         0.0997
      13    H9      21.168707   17.294092   23.009078 H          1 MOL1         0.0997
      14    C4      20.224415   18.956629   24.040082 C.3        1 MOL1        -0.1305
      15    H10     20.872025   18.844853   24.920967 H          1 MOL1         0.0997
      16    H11     20.082989   20.037514   23.905240 H          1 MOL1         0.0997
      17    C5      18.862630   18.288033   24.335656 C.3        1 MOL1        -0.2320
      18    H12     18.973963   17.202910   24.458445 H          1 MOL1         0.1008
      19    H13     18.430973   18.687942   25.262279 H          1 MOL1         0.1008
      20    H14     18.140895   18.470774   23.529861 H          1 MOL1         0.1008
@<TRIPOS>BOND
    1     1     2    1
    2     1     3    1
    3     1     4    1
    4     1     5    1
    5     5     6    1
    6     5     7    1
    7     5     8    1
    8     8     9    1
    9     8    10    1
   10     8    11    1
   11    11    12    1
   12    11    13    1
   13    11    14    1
   14    14    15    1
   15    14    16    1
   16    14    17    1
   17    17    18    1
   18    17    19    1
   19    17    20    1
@<TRIPOS>SUBSTRUCTURE
       1 MOL1            1 RESIDUE      1      MOL     
@<SCITEGIC>MOL_PROPERTY
VConf Rank
SciTegic.value.IntegerValue
75

@<SCITEGIC>MOL_PROPERTY
Conf_Id
SciTegic.value.IntegerValue
2

@<SCITEGIC>MOL_PROPERTY
Delta U+W
SciTegic.value.DoubleValue
0.994

@<SCITEGIC>MOL_PROPERTY
U+W
SciTegic.value.DoubleValue
-10.784

@<SCITEGIC>MOL_PROPERTY
Grad RMS
SciTegic.value.DoubleValue
0.000000

@<SCITEGIC>MOL_PROPERTY
U
SciTegic.value.DoubleValue
47.562

@<SCITEGIC>MOL_PROPERTY
W
SciTegic.value.DoubleValue
-58.346

@<SCITEGIC>MOL_PROPERTY
W(PB)
SciTegic.value.DoubleValue
-60.221

@<SCITEGIC>MOL_PROPERTY
W(SA)
SciTegic.value.DoubleValue
1.875

@<SCITEGIC>MOL_PROPERTY
Valence
SciTegic.value.DoubleValue
2.149

@<SCITEGIC>MOL_PROPERTY
Coulomb
SciTegic.value.DoubleValue
45.034

@<SCITEGIC>MOL_PROPERTY
VdW
SciTegic.value.DoubleValue
0.378

@<SCITEGIC>MOL_PROPERTY
VdW6
SciTegic.value.DoubleValue
-5.599

@<SCITEGIC>MOL_PROPERTY
VdW12
SciTegic.value.DoubleValue
5.977

@<SCITEGIC>MOL_PROPERTY
Bond
SciTegic.value.DoubleValue
0.185

@<SCITEGIC>MOL_PROPERTY
Angle
SciTegic.value.DoubleValue
0.935

@<SCITEGIC>MOL_PROPERTY
Pdih
SciTegic.value.DoubleValue
1.028

@<SCITEGIC>MOL_PROPERTY
Idih
SciTegic.value.DoubleValue
0.000

@<SCITEGIC>MOL_PROPERTY
Tether
SciTegic.value.DoubleValue
0.000

@<TRIPOS>MOLECULE
guest-s11_confgen4.mol2 : confsearch ligand conformer 76
          20          19           1
SMALL
USER_CHARGES
 
@<TRIPOS>ATOM
       1    N1      21.005769   20.556738   20.735061 N.4        1 MOL1        -0.5919
       2    H1      20.442813   21.383620   20.512832 H          1 MOL1         0.3682
       3    H2      21.529576   20.767952   21.589435 H          1 MOL1         0.3682
       4    H3      21.691616   20.450996   19.980249 H          1 MOL1         0.3682
       5    C1      20.147730   19.316912   20.895049 C.3        1 MOL1         0.0252
       6    H4      20.808588   18.469882   21.096891 H          1 MOL1         0.0971
       7    H5      19.644718   19.134711   19.941483 H          1 MOL1         0.0971
       8    C2      19.094283   19.432745   22.015370 C.3        1 MOL1        -0.1369
       9    H6      18.415514   20.264684   21.785615 H          1 MOL1         0.0997
      10    H7      18.471897   18.528783   22.010576 H          1 MOL1         0.0997
      11    C3      19.697831   19.641893   23.429223 C.3        1 MOL1        -0.1329
      12    H8      18.879157   19.679132   24.161060 H          1 MOL1         0.0997
      13    H9      20.182139   20.626524   23.475645 H          1 MOL1         0.0997
      14    C4      20.717489   18.559697   23.867611 C.3        1 MOL1        -0.1305
      15    H10     21.592598   18.570425   23.203861 H          1 MOL1         0.0997
      16    H11     21.094194   18.817358   24.867387 H          1 MOL1         0.0997
      17    C5      20.118408   17.135672   23.913395 C.3        1 MOL1        -0.2320
      18    H12     19.830874   16.787357   22.913594 H          1 MOL1         0.1008
      19    H13     20.851235   16.422864   24.313089 H          1 MOL1         0.1008
      20    H14     19.230783   17.101329   24.558300 H          1 MOL1         0.1008
@<TRIPOS>BOND
    1     1     2    1
    2     1     3    1
    3     1     4    1
    4     1     5    1
    5     5     6    1
    6     5     7    1
    7     5     8    1
    8     8     9    1
    9     8    10    1
   10     8    11    1
   11    11    12    1
   12    11    13    1
   13    11    14    1
   14    14    15    1
   15    14    16    1
   16    14    17    1
   17    17    18    1
   18    17    19    1
   19    17    20    1
@<TRIPOS>SUBSTRUCTURE
       1 MOL1            1 RESIDUE      1      MOL     
@<SCITEGIC>MOL_PROPERTY
VConf Rank
SciTegic.value.IntegerValue
76

@<SCITEGIC>MOL_PROPERTY
Conf_Id
SciTegic.value.IntegerValue
1

@<SCITEGIC>MOL_PROPERTY
Delta U+W
SciTegic.value.DoubleValue
1.032

@<SCITEGIC>MOL_PROPERTY
U+W
SciTegic.value.DoubleValue
-10.746

@<SCITEGIC>MOL_PROPERTY
Grad RMS
SciTegic.value.DoubleValue
0.000000

@<SCITEGIC>MOL_PROPERTY
U
SciTegic.value.DoubleValue
47.562

@<SCITEGIC>MOL_PROPERTY
W
SciTegic.value.DoubleValue
-58.308

@<SCITEGIC>MOL_PROPERTY
W(PB)
SciTegic.value.DoubleValue
-60.184

@<SCITEGIC>MOL_PROPERTY
W(SA)
SciTegic.value.DoubleValue
1.877

@<SCITEGIC>MOL_PROPERTY
Valence
SciTegic.value.DoubleValue
2.149

@<SCITEGIC>MOL_PROPERTY
Coulomb
SciTegic.value.DoubleValue
45.035

@<SCITEGIC>MOL_PROPERTY
VdW
SciTegic.value.DoubleValue
0.378

@<SCITEGIC>MOL_PROPERTY
VdW6
SciTegic.value.DoubleValue
-5.599

@<SCITEGIC>MOL_PROPERTY
VdW12
SciTegic.value.DoubleValue
5.978

@<SCITEGIC>MOL_PROPERTY
Bond
SciTegic.value.DoubleValue
0.185

@<SCITEGIC>MOL_PROPERTY
Angle
SciTegic.value.DoubleValue
0.935

@<SCITEGIC>MOL_PROPERTY
Pdih
SciTegic.value.DoubleValue
1.028

@<SCITEGIC>MOL_PROPERTY
Idih
SciTegic.value.DoubleValue
0.000

@<SCITEGIC>MOL_PROPERTY
Tether
SciTegic.value.DoubleValue
0.000

@<TRIPOS>MOLECULE
guest-s11_confgen4.mol2 : confsearch ligand conformer 77
          20          19           1
SMALL
USER_CHARGES
 
@<TRIPOS>ATOM
       1    N1      18.659438   20.220121   21.163898 N.4        1 MOL1        -0.5919
       2    H1      17.689900   20.271928   21.491620 H          1 MOL1         0.3682
       3    H2      19.191809   20.926199   21.680347 H          1 MOL1         0.3682
       4    H3      18.657099   20.507649   20.179690 H          1 MOL1         0.3682
       5    C1      19.242526   18.831765   21.343441 C.3        1 MOL1         0.0252
       6    H4      20.259333   18.840452   20.947778 H          1 MOL1         0.0971
       7    H5      18.650067   18.145296   20.732476 H          1 MOL1         0.0971
       8    C2      19.239232   18.338391   22.806070 C.3        1 MOL1        -0.1369
       9    H6      18.202712   18.354116   23.168282 H          1 MOL1         0.0997
      10    H7      19.551630   17.286176   22.835569 H          1 MOL1         0.0997
      11    C3      20.122054   19.170837   23.774566 C.3        1 MOL1        -0.1329
      12    H8      19.737072   19.021703   24.792884 H          1 MOL1         0.0997
      13    H9      20.010461   20.244290   23.574643 H          1 MOL1         0.0997
      14    C4      21.624432   18.787773   23.787020 C.3        1 MOL1        -0.1305
      15    H10     22.123150   19.375660   24.570356 H          1 MOL1         0.0997
      16    H11     21.736113   17.734972   24.081840 H          1 MOL1         0.0997
      17    C5      22.360575   19.027727   22.450440 C.3        1 MOL1        -0.2320
      18    H12     22.174673   20.039820   22.068512 H          1 MOL1         0.1008
      19    H13     23.444006   18.914475   22.585640 H          1 MOL1         0.1008
      20    H14     22.053006   18.301411   21.688915 H          1 MOL1         0.1008
@<TRIPOS>BOND
    1     1     2    1
    2     1     3    1
    3     1     4    1
    4     1     5    1
    5     5     6    1
    6     5     7    1
    7     5     8    1
    8     8     9    1
    9     8    10    1
   10     8    11    1
   11    11    12    1
   12    11    13    1
   13    11    14    1
   14    14    15    1
   15    14    16    1
   16    14    17    1
   17    17    18    1
   18    17    19    1
   19    17    20    1
@<TRIPOS>SUBSTRUCTURE
       1 MOL1            1 RESIDUE      1      MOL     
@<SCITEGIC>MOL_PROPERTY
VConf Rank
SciTegic.value.IntegerValue
77

@<SCITEGIC>MOL_PROPERTY
Conf_Id
SciTegic.value.IntegerValue
80

@<SCITEGIC>MOL_PROPERTY
Delta U+W
SciTegic.value.DoubleValue
2.920

@<SCITEGIC>MOL_PROPERTY
U+W
SciTegic.value.DoubleValue
-8.857

@<SCITEGIC>MOL_PROPERTY
Grad RMS
SciTegic.value.DoubleValue
0.000000

@<SCITEGIC>MOL_PROPERTY
U
SciTegic.value.DoubleValue
49.434

@<SCITEGIC>MOL_PROPERTY
W
SciTegic.value.DoubleValue
-58.292

@<SCITEGIC>MOL_PROPERTY
W(PB)
SciTegic.value.DoubleValue
-60.170

@<SCITEGIC>MOL_PROPERTY
W(SA)
SciTegic.value.DoubleValue
1.879

@<SCITEGIC>MOL_PROPERTY
Valence
SciTegic.value.DoubleValue
3.798

@<SCITEGIC>MOL_PROPERTY
Coulomb
SciTegic.value.DoubleValue
45.253

@<SCITEGIC>MOL_PROPERTY
VdW
SciTegic.value.DoubleValue
0.384

@<SCITEGIC>MOL_PROPERTY
VdW6
SciTegic.value.DoubleValue
-5.595

@<SCITEGIC>MOL_PROPERTY
VdW12
SciTegic.value.DoubleValue
5.979

@<SCITEGIC>MOL_PROPERTY
Bond
SciTegic.value.DoubleValue
0.198

@<SCITEGIC>MOL_PROPERTY
Angle
SciTegic.value.DoubleValue
1.368

@<SCITEGIC>MOL_PROPERTY
Pdih
SciTegic.value.DoubleValue
2.231

@<SCITEGIC>MOL_PROPERTY
Idih
SciTegic.value.DoubleValue
0.000

@<SCITEGIC>MOL_PROPERTY
Tether
SciTegic.value.DoubleValue
0.000

@<TRIPOS>MOLECULE
guest-s11_confgen4.mol2 : confsearch ligand conformer 78
          20          19           1
SMALL
USER_CHARGES
 
@<TRIPOS>ATOM
       1    N1      19.382144   17.631587   20.961454 N.4        1 MOL1        -0.5919
       2    H1      19.776112   16.685630   20.968186 H          1 MOL1         0.3682
       3    H2      18.533423   17.596860   20.387160 H          1 MOL1         0.3682
       4    H3      20.049872   18.234252   20.471943 H          1 MOL1         0.3682
       5    C1      19.093216   18.132688   22.363301 C.3        1 MOL1         0.0252
       6    H4      18.345614   17.466571   22.802508 H          1 MOL1         0.0971
       7    H5      18.649748   19.126159   22.280425 H          1 MOL1         0.0971
       8    C2      20.334955   18.173195   23.279363 C.3        1 MOL1        -0.1369
       9    H6      20.023564   18.418604   24.303291 H          1 MOL1         0.0997
      10    H7      20.755206   17.159866   23.328075 H          1 MOL1         0.0997
      11    C3      21.446797   19.156294   22.823675 C.3        1 MOL1        -0.1329
      12    H8      21.589001   19.103366   21.736616 H          1 MOL1         0.0997
      13    H9      22.396260   18.815684   23.259484 H          1 MOL1         0.0997
      14    C4      21.239651   20.629751   23.259631 C.3        1 MOL1        -0.1305
      15    H10     21.193892   20.688992   24.356070 H          1 MOL1         0.0997
      16    H11     22.127922   21.204798   22.962574 H          1 MOL1         0.0997
      17    C5      19.991004   21.309749   22.655965 C.3        1 MOL1        -0.2320
      18    H12     19.068489   20.917595   23.100076 H          1 MOL1         0.1008
      19    H13     20.010999   22.389279   22.853810 H          1 MOL1         0.1008
      20    H14     19.946660   21.169327   21.568272 H          1 MOL1         0.1008
@<TRIPOS>BOND
    1     1     2    1
    2     1     3    1
    3     1     4    1
    4     1     5    1
    5     5     6    1
    6     5     7    1
    7     5     8    1
    8     8     9    1
    9     8    10    1
   10     8    11    1
   11    11    12    1
   12    11    13    1
   13    11    14    1
   14    14    15    1
   15    14    16    1
   16    14    17    1
   17    17    18    1
   18    17    19    1
   19    17    20    1
@<TRIPOS>SUBSTRUCTURE
       1 MOL1            1 RESIDUE      1      MOL     
@<SCITEGIC>MOL_PROPERTY
VConf Rank
SciTegic.value.IntegerValue
78

@<SCITEGIC>MOL_PROPERTY
Conf_Id
SciTegic.value.IntegerValue
65

@<SCITEGIC>MOL_PROPERTY
Delta U+W
SciTegic.value.DoubleValue
2.949

@<SCITEGIC>MOL_PROPERTY
U+W
SciTegic.value.DoubleValue
-8.829

@<SCITEGIC>MOL_PROPERTY
Grad RMS
SciTegic.value.DoubleValue
0.000000

@<SCITEGIC>MOL_PROPERTY
U
SciTegic.value.DoubleValue
49.435

@<SCITEGIC>MOL_PROPERTY
W
SciTegic.value.DoubleValue
-58.263

@<SCITEGIC>MOL_PROPERTY
W(PB)
SciTegic.value.DoubleValue
-60.125

@<SCITEGIC>MOL_PROPERTY
W(SA)
SciTegic.value.DoubleValue
1.862

@<SCITEGIC>MOL_PROPERTY
Valence
SciTegic.value.DoubleValue
3.797

@<SCITEGIC>MOL_PROPERTY
Coulomb
SciTegic.value.DoubleValue
45.253

@<SCITEGIC>MOL_PROPERTY
VdW
SciTegic.value.DoubleValue
0.384

@<SCITEGIC>MOL_PROPERTY
VdW6
SciTegic.value.DoubleValue
-5.596

@<SCITEGIC>MOL_PROPERTY
VdW12
SciTegic.value.DoubleValue
5.980

@<SCITEGIC>MOL_PROPERTY
Bond
SciTegic.value.DoubleValue
0.198

@<SCITEGIC>MOL_PROPERTY
Angle
SciTegic.value.DoubleValue
1.369

@<SCITEGIC>MOL_PROPERTY
Pdih
SciTegic.value.DoubleValue
2.230

@<SCITEGIC>MOL_PROPERTY
Idih
SciTegic.value.DoubleValue
0.000

@<SCITEGIC>MOL_PROPERTY
Tether
SciTegic.value.DoubleValue
0.000

@<TRIPOS>MOLECULE
guest-s11_confgen4.mol2 : confsearch ligand conformer 79
          20          19           1
SMALL
USER_CHARGES
 
@<TRIPOS>ATOM
       1    N1      21.477205   18.279748   21.394459 N.4        1 MOL1        -0.5919
       2    H1      22.396809   18.478163   20.986243 H          1 MOL1         0.3682
       3    H2      21.561508   18.395274   22.408989 H          1 MOL1         0.3682
       4    H3      21.278978   17.290248   21.215566 H          1 MOL1         0.3682
       5    C1      20.400312   19.181440   20.822787 C.3        1 MOL1         0.0252
       6    H4      20.370480   18.999681   19.745014 H          1 MOL1         0.0971
       7    H5      20.692983   20.222513   20.983132 H          1 MOL1         0.0971
       8    C2      18.997443   18.934586   21.413914 C.3        1 MOL1        -0.1369
       9    H6      18.260089   19.298821   20.686279 H          1 MOL1         0.0997
      10    H7      18.817458   17.855267   21.506018 H          1 MOL1         0.0997
      11    C3      18.716182   19.641646   22.766992 C.3        1 MOL1        -0.1329
      12    H8      17.673698   19.425977   23.039462 H          1 MOL1         0.0997
      13    H9      18.765582   20.731691   22.637269 H          1 MOL1         0.0997
      14    C4      19.620558   19.205010   23.947658 C.3        1 MOL1        -0.1305
      15    H10     19.020776   19.211345   24.868788 H          1 MOL1         0.0997
      16    H11     19.948507   18.165053   23.816500 H          1 MOL1         0.0997
      17    C5      20.830860   20.143893   24.165572 C.3        1 MOL1        -0.2320
      18    H12     21.446327   20.250634   23.265905 H          1 MOL1         0.1008
      19    H13     20.493290   21.148059   24.453701 H          1 MOL1         0.1008
      20    H14     21.472381   19.767171   24.972860 H          1 MOL1         0.1008
@<TRIPOS>BOND
    1     1     2    1
    2     1     3    1
    3     1     4    1
    4     1     5    1
    5     5     6    1
    6     5     7    1
    7     5     8    1
    8     8     9    1
    9     8    10    1
   10     8    11    1
   11    11    12    1
   12    11    13    1
   13    11    14    1
   14    14    15    1
   15    14    16    1
   16    14    17    1
   17    17    18    1
   18    17    19    1
   19    17    20    1
@<TRIPOS>SUBSTRUCTURE
       1 MOL1            1 RESIDUE      1      MOL     
@<SCITEGIC>MOL_PROPERTY
VConf Rank
SciTegic.value.IntegerValue
79

@<SCITEGIC>MOL_PROPERTY
Conf_Id
SciTegic.value.IntegerValue
77

@<SCITEGIC>MOL_PROPERTY
Delta U+W
SciTegic.value.DoubleValue
5.366

@<SCITEGIC>MOL_PROPERTY
U+W
SciTegic.value.DoubleValue
-6.412

@<SCITEGIC>MOL_PROPERTY
Grad RMS
SciTegic.value.DoubleValue
0.000000

@<SCITEGIC>MOL_PROPERTY
U
SciTegic.value.DoubleValue
51.542

@<SCITEGIC>MOL_PROPERTY
W
SciTegic.value.DoubleValue
-57.954

@<SCITEGIC>MOL_PROPERTY
W(PB)
SciTegic.value.DoubleValue
-59.811

@<SCITEGIC>MOL_PROPERTY
W(SA)
SciTegic.value.DoubleValue
1.857

@<SCITEGIC>MOL_PROPERTY
Valence
SciTegic.value.DoubleValue
5.347

@<SCITEGIC>MOL_PROPERTY
Coulomb
SciTegic.value.DoubleValue
45.870

@<SCITEGIC>MOL_PROPERTY
VdW
SciTegic.value.DoubleValue
0.325

@<SCITEGIC>MOL_PROPERTY
VdW6
SciTegic.value.DoubleValue
-6.161

@<SCITEGIC>MOL_PROPERTY
VdW12
SciTegic.value.DoubleValue
6.486

@<SCITEGIC>MOL_PROPERTY
Bond
SciTegic.value.DoubleValue
0.201

@<SCITEGIC>MOL_PROPERTY
Angle
SciTegic.value.DoubleValue
1.484

@<SCITEGIC>MOL_PROPERTY
Pdih
SciTegic.value.DoubleValue
3.662

@<SCITEGIC>MOL_PROPERTY
Idih
SciTegic.value.DoubleValue
0.000

@<SCITEGIC>MOL_PROPERTY
Tether
SciTegic.value.DoubleValue
0.000

@<TRIPOS>MOLECULE
guest-s11_confgen4.mol2 : confsearch ligand conformer 80
          20          19           1
SMALL
USER_CHARGES
 
@<TRIPOS>ATOM
       1    N1      18.767927   17.818767   21.856965 N.4        1 MOL1        -0.5919
       2    H1      18.651366   16.969896   22.419316 H          1 MOL1         0.3682
       3    H2      18.582744   18.618495   22.470046 H          1 MOL1         0.3682
       4    H3      18.033765   17.805319   21.141069 H          1 MOL1         0.3682
       5    C1      20.152180   17.901263   21.243286 C.3        1 MOL1         0.0252
       6    H4      20.200325   18.786960   20.604206 H          1 MOL1         0.0971
       7    H5      20.273682   17.018668   20.609422 H          1 MOL1         0.0971
       8    C2      21.295104   17.939054   22.278035 C.3        1 MOL1        -0.1369
       9    H6      21.093165   17.218328   23.081517 H          1 MOL1         0.0997
      10    H7      22.207199   17.583340   21.780680 H          1 MOL1         0.0997
      11    C3      21.598205   19.338445   22.877783 C.3        1 MOL1        -0.1329
      12    H8      21.930979   20.021854   22.084260 H          1 MOL1         0.0997
      13    H9      22.460604   19.227675   23.549739 H          1 MOL1         0.0997
      14    C4      20.441713   19.982612   23.684067 C.3        1 MOL1        -0.1305
      15    H10     19.810724   19.206644   24.137926 H          1 MOL1         0.0997
      16    H11     20.871975   20.542957   24.526177 H          1 MOL1         0.0997
      17    C5      19.591810   20.967422   22.846431 C.3        1 MOL1        -0.2320
      18    H12     18.753678   21.356274   23.439313 H          1 MOL1         0.1008
      19    H13     20.197580   21.826115   22.528607 H          1 MOL1         0.1008
      20    H14     19.181147   20.503780   21.943112 H          1 MOL1         0.1008
@<TRIPOS>BOND
    1     1     2    1
    2     1     3    1
    3     1     4    1
    4     1     5    1
    5     5     6    1
    6     5     7    1
    7     5     8    1
    8     8     9    1
    9     8    10    1
   10     8    11    1
   11    11    12    1
   12    11    13    1
   13    11    14    1
   14    14    15    1
   15    14    16    1
   16    14    17    1
   17    17    18    1
   18    17    19    1
   19    17    20    1
@<TRIPOS>SUBSTRUCTURE
       1 MOL1            1 RESIDUE      1      MOL     
@<SCITEGIC>MOL_PROPERTY
VConf Rank
SciTegic.value.IntegerValue
80

@<SCITEGIC>MOL_PROPERTY
Conf_Id
SciTegic.value.IntegerValue
67

@<SCITEGIC>MOL_PROPERTY
Delta U+W
SciTegic.value.DoubleValue
5.353

@<SCITEGIC>MOL_PROPERTY
U+W
SciTegic.value.DoubleValue
-6.425

@<SCITEGIC>MOL_PROPERTY
Grad RMS
SciTegic.value.DoubleValue
0.000000

@<SCITEGIC>MOL_PROPERTY
U
SciTegic.value.DoubleValue
51.541

@<SCITEGIC>MOL_PROPERTY
W
SciTegic.value.DoubleValue
-57.966

@<SCITEGIC>MOL_PROPERTY
W(PB)
SciTegic.value.DoubleValue
-59.821

@<SCITEGIC>MOL_PROPERTY
W(SA)
SciTegic.value.DoubleValue
1.855

@<SCITEGIC>MOL_PROPERTY
Valence
SciTegic.value.DoubleValue
5.347

@<SCITEGIC>MOL_PROPERTY
Coulomb
SciTegic.value.DoubleValue
45.870

@<SCITEGIC>MOL_PROPERTY
VdW
SciTegic.value.DoubleValue
0.325

@<SCITEGIC>MOL_PROPERTY
VdW6
SciTegic.value.DoubleValue
-6.161

@<SCITEGIC>MOL_PROPERTY
VdW12
SciTegic.value.DoubleValue
6.486

@<SCITEGIC>MOL_PROPERTY
Bond
SciTegic.value.DoubleValue
0.201

@<SCITEGIC>MOL_PROPERTY
Angle
SciTegic.value.DoubleValue
1.485

@<SCITEGIC>MOL_PROPERTY
Pdih
SciTegic.value.DoubleValue
3.662

@<SCITEGIC>MOL_PROPERTY
Idih
SciTegic.value.DoubleValue
0.000

@<SCITEGIC>MOL_PROPERTY
Tether
SciTegic.value.DoubleValue
0.000

@<TRIPOS>MOLECULE
guest-s11_confgen4.mol2 : confsearch ligand conformer 81
          20          19           1
SMALL
USER_CHARGES
 
@<TRIPOS>ATOM
       1    N1      21.565687   16.975296   20.540770 N.4        1 MOL1        -0.5919
       2    H1      20.748204   16.382882   20.364265 H          1 MOL1         0.3682
       3    H2      22.117551   16.985319   19.676511 H          1 MOL1         0.3682
       4    H3      22.133550   16.501403   21.250238 H          1 MOL1         0.3682
       5    C1      21.170028   18.373002   20.972463 C.3        1 MOL1         0.0252
       6    H4      20.595949   18.827276   20.160314 H          1 MOL1         0.0971
       7    H5      22.085179   18.954625   21.112925 H          1 MOL1         0.0971
       8    C2      20.339422   18.393550   22.268201 C.3        1 MOL1        -0.1369
       9    H6      19.429302   17.795192   22.127782 H          1 MOL1         0.0997
      10    H7      20.913393   17.922101   23.077127 H          1 MOL1         0.0997
      11    C3      19.957371   19.834759   22.672782 C.3        1 MOL1        -0.1329
      12    H8      19.387787   20.305177   21.859105 H          1 MOL1         0.0997
      13    H9      20.870097   20.431921   22.807398 H          1 MOL1         0.0997
      14    C4      19.122871   19.867692   23.972806 C.3        1 MOL1        -0.1305
      15    H10     18.207761   19.273165   23.841809 H          1 MOL1         0.0997
      16    H11     19.689885   19.399986   24.789992 H          1 MOL1         0.0997
      17    C5      18.743434   21.309498   24.373056 C.3        1 MOL1        -0.2320
      18    H12     18.145506   21.792670   23.589320 H          1 MOL1         0.1008
      19    H13     18.151628   21.312227   25.297612 H          1 MOL1         0.1008
      20    H14     19.639188   21.920448   24.545043 H          1 MOL1         0.1008
@<TRIPOS>BOND
    1     1     2    1
    2     1     3    1
    3     1     4    1
    4     1     5    1
    5     5     6    1
    6     5     7    1
    7     5     8    1
    8     8     9    1
    9     8    10    1
   10     8    11    1
   11    11    12    1
   12    11    13    1
   13    11    14    1
   14    14    15    1
   15    14    16    1
   16    14    17    1
   17    17    18    1
   18    17    19    1
   19    17    20    1
@<TRIPOS>SUBSTRUCTURE
       1 MOL1            1 RESIDUE      1      MOL     
@<SCITEGIC>MOL_PROPERTY
VConf Rank
SciTegic.value.IntegerValue
81

@<SCITEGIC>MOL_PROPERTY
Conf_Id
SciTegic.value.IntegerValue
72

@<SCITEGIC>MOL_PROPERTY
Delta U+W
SciTegic.value.DoubleValue
0.000

@<SCITEGIC>MOL_PROPERTY
U+W
SciTegic.value.DoubleValue
-11.778

@<SCITEGIC>MOL_PROPERTY
Grad RMS
SciTegic.value.DoubleValue
0.000000

@<SCITEGIC>MOL_PROPERTY
U
SciTegic.value.DoubleValue
45.772

@<SCITEGIC>MOL_PROPERTY
W
SciTegic.value.DoubleValue
-57.550

@<SCITEGIC>MOL_PROPERTY
W(PB)
SciTegic.value.DoubleValue
-59.511

@<SCITEGIC>MOL_PROPERTY
W(SA)
SciTegic.value.DoubleValue
1.961

@<SCITEGIC>MOL_PROPERTY
Valence
SciTegic.value.DoubleValue
1.299

@<SCITEGIC>MOL_PROPERTY
Coulomb
SciTegic.value.DoubleValue
44.177

@<SCITEGIC>MOL_PROPERTY
VdW
SciTegic.value.DoubleValue
0.297

@<SCITEGIC>MOL_PROPERTY
VdW6
SciTegic.value.DoubleValue
-3.490

@<SCITEGIC>MOL_PROPERTY
VdW12
SciTegic.value.DoubleValue
3.786

@<SCITEGIC>MOL_PROPERTY
Bond
SciTegic.value.DoubleValue
0.096

@<SCITEGIC>MOL_PROPERTY
Angle
SciTegic.value.DoubleValue
0.381

@<SCITEGIC>MOL_PROPERTY
Pdih
SciTegic.value.DoubleValue
0.822

@<SCITEGIC>MOL_PROPERTY
Idih
SciTegic.value.DoubleValue
0.000

@<SCITEGIC>MOL_PROPERTY
Tether
SciTegic.value.DoubleValue
0.000

@<TRIPOS>MOLECULE
guest-s11_confgen4.mol2 : confsearch ligand conformer 82
          20          19           1
SMALL
USER_CHARGES
 
@<TRIPOS>ATOM
       1    N1      20.157085   20.793167   25.015304 N.4        1 MOL1        -0.5919
       2    H1      20.833015   21.448840   24.610894 H          1 MOL1         0.3682
       3    H2      19.230386   21.221293   24.924202 H          1 MOL1         0.3682
       4    H3      20.361176   20.737126   26.018692 H          1 MOL1         0.3682
       5    C1      20.220302   19.432500   24.351102 C.3        1 MOL1         0.0252
       6    H4      19.498971   18.779685   24.850108 H          1 MOL1         0.0971
       7    H5      21.221674   19.024211   24.512539 H          1 MOL1         0.0971
       8    C2      19.917993   19.480713   22.842608 C.3        1 MOL1        -0.1369
       9    H6      18.918060   19.906040   22.684360 H          1 MOL1         0.0997
      10    H7      20.636250   20.151965   22.355171 H          1 MOL1         0.0997
      11    C3      19.991247   18.072026   22.207499 C.3        1 MOL1        -0.1329
      12    H8      19.321986   17.396183   22.758015 H          1 MOL1         0.0997
      13    H9      21.005259   17.665194   22.325204 H          1 MOL1         0.0997
      14    C4      19.594081   18.047313   20.711398 C.3        1 MOL1        -0.1305
      15    H10     19.571662   17.002953   20.369713 H          1 MOL1         0.0997
      16    H11     18.571249   18.431206   20.591746 H          1 MOL1         0.0997
      17    C5      20.558596   18.846869   19.805887 C.3        1 MOL1        -0.2320
      18    H12     21.593246   18.500991   19.927885 H          1 MOL1         0.1008
      19    H13     20.285960   18.722322   18.749899 H          1 MOL1         0.1008
      20    H14     20.525829   19.920299   20.029710 H          1 MOL1         0.1008
@<TRIPOS>BOND
    1     1     2    1
    2     1     3    1
    3     1     4    1
    4     1     5    1
    5     5     6    1
    6     5     7    1
    7     5     8    1
    8     8     9    1
    9     8    10    1
   10     8    11    1
   11    11    12    1
   12    11    13    1
   13    11    14    1
   14    14    15    1
   15    14    16    1
   16    14    17    1
   17    17    18    1
   18    17    19    1
   19    17    20    1
@<TRIPOS>SUBSTRUCTURE
       1 MOL1            1 RESIDUE      1      MOL     
@<SCITEGIC>MOL_PROPERTY
VConf Rank
SciTegic.value.IntegerValue
82

@<SCITEGIC>MOL_PROPERTY
Conf_Id
SciTegic.value.IntegerValue
42

@<SCITEGIC>MOL_PROPERTY
Delta U+W
SciTegic.value.DoubleValue
0.508

@<SCITEGIC>MOL_PROPERTY
U+W
SciTegic.value.DoubleValue
-11.270

@<SCITEGIC>MOL_PROPERTY
Grad RMS
SciTegic.value.DoubleValue
0.000000

@<SCITEGIC>MOL_PROPERTY
U
SciTegic.value.DoubleValue
46.486

@<SCITEGIC>MOL_PROPERTY
W
SciTegic.value.DoubleValue
-57.756

@<SCITEGIC>MOL_PROPERTY
W(PB)
SciTegic.value.DoubleValue
-59.705

@<SCITEGIC>MOL_PROPERTY
W(SA)
SciTegic.value.DoubleValue
1.949

@<SCITEGIC>MOL_PROPERTY
Valence
SciTegic.value.DoubleValue
1.806

@<SCITEGIC>MOL_PROPERTY
Coulomb
SciTegic.value.DoubleValue
44.248

@<SCITEGIC>MOL_PROPERTY
VdW
SciTegic.value.DoubleValue
0.433

@<SCITEGIC>MOL_PROPERTY
VdW6
SciTegic.value.DoubleValue
-4.089

@<SCITEGIC>MOL_PROPERTY
VdW12
SciTegic.value.DoubleValue
4.522

@<SCITEGIC>MOL_PROPERTY
Bond
SciTegic.value.DoubleValue
0.131

@<SCITEGIC>MOL_PROPERTY
Angle
SciTegic.value.DoubleValue
0.628

@<SCITEGIC>MOL_PROPERTY
Pdih
SciTegic.value.DoubleValue
1.047

@<SCITEGIC>MOL_PROPERTY
Idih
SciTegic.value.DoubleValue
0.000

@<SCITEGIC>MOL_PROPERTY
Tether
SciTegic.value.DoubleValue
0.000

@<TRIPOS>MOLECULE
guest-s11_confgen4.mol2 : confsearch ligand conformer 83
          20          19           1
SMALL
USER_CHARGES
 
@<TRIPOS>ATOM
       1    N1      20.064043   16.347051   23.776214 N.4        1 MOL1        -0.5919
       2    H1      20.508263   15.819196   23.018321 H          1 MOL1         0.3682
       3    H2      20.804184   16.609457   24.434748 H          1 MOL1         0.3682
       4    H3      19.444977   15.694990   24.269322 H          1 MOL1         0.3682
       5    C1      19.310984   17.556104   23.258842 C.3        1 MOL1         0.0252
       6    H4      18.840433   18.051462   24.112487 H          1 MOL1         0.0971
       7    H5      18.521952   17.201361   22.590201 H          1 MOL1         0.0971
       8    C2      20.211735   18.556213   22.512049 C.3        1 MOL1        -0.1369
       9    H6      21.009653   18.891643   23.186499 H          1 MOL1         0.0997
      10    H7      20.694463   18.050565   21.665229 H          1 MOL1         0.0997
      11    C3      19.402265   19.771193   22.000468 C.3        1 MOL1        -0.1329
      12    H8      18.956929   20.304328   22.851954 H          1 MOL1         0.0997
      13    H9      18.563065   19.410314   21.389522 H          1 MOL1         0.0997
      14    C4      20.239906   20.758850   21.152199 C.3        1 MOL1        -0.1305
      15    H10     20.667804   20.234950   20.285996 H          1 MOL1         0.0997
      16    H11     19.570433   21.529339   20.744655 H          1 MOL1         0.0997
      17    C5      21.368259   21.451182   21.950340 C.3        1 MOL1        -0.2320
      18    H12     22.130397   20.733179   22.277510 H          1 MOL1         0.1008
      19    H13     21.870652   22.204815   21.330186 H          1 MOL1         0.1008
      20    H14     20.969943   21.959222   22.838177 H          1 MOL1         0.1008
@<TRIPOS>BOND
    1     1     2    1
    2     1     3    1
    3     1     4    1
    4     1     5    1
    5     5     6    1
    6     5     7    1
    7     5     8    1
    8     8     9    1
    9     8    10    1
   10     8    11    1
   11    11    12    1
   12    11    13    1
   13    11    14    1
   14    14    15    1
   15    14    16    1
   16    14    17    1
   17    17    18    1
   18    17    19    1
   19    17    20    1
@<TRIPOS>SUBSTRUCTURE
       1 MOL1            1 RESIDUE      1      MOL     
@<SCITEGIC>MOL_PROPERTY
VConf Rank
SciTegic.value.IntegerValue
83

@<SCITEGIC>MOL_PROPERTY
Conf_Id
SciTegic.value.IntegerValue
41

@<SCITEGIC>MOL_PROPERTY
Delta U+W
SciTegic.value.DoubleValue
0.515

@<SCITEGIC>MOL_PROPERTY
U+W
SciTegic.value.DoubleValue
-11.263

@<SCITEGIC>MOL_PROPERTY
Grad RMS
SciTegic.value.DoubleValue
0.000000

@<SCITEGIC>MOL_PROPERTY
U
SciTegic.value.DoubleValue
46.486

@<SCITEGIC>MOL_PROPERTY
W
SciTegic.value.DoubleValue
-57.749

@<SCITEGIC>MOL_PROPERTY
W(PB)
SciTegic.value.DoubleValue
-59.685

@<SCITEGIC>MOL_PROPERTY
W(SA)
SciTegic.value.DoubleValue
1.936

@<SCITEGIC>MOL_PROPERTY
Valence
SciTegic.value.DoubleValue
1.806

@<SCITEGIC>MOL_PROPERTY
Coulomb
SciTegic.value.DoubleValue
44.248

@<SCITEGIC>MOL_PROPERTY
VdW
SciTegic.value.DoubleValue
0.433

@<SCITEGIC>MOL_PROPERTY
VdW6
SciTegic.value.DoubleValue
-4.089

@<SCITEGIC>MOL_PROPERTY
VdW12
SciTegic.value.DoubleValue
4.522

@<SCITEGIC>MOL_PROPERTY
Bond
SciTegic.value.DoubleValue
0.131

@<SCITEGIC>MOL_PROPERTY
Angle
SciTegic.value.DoubleValue
0.628

@<SCITEGIC>MOL_PROPERTY
Pdih
SciTegic.value.DoubleValue
1.047

@<SCITEGIC>MOL_PROPERTY
Idih
SciTegic.value.DoubleValue
0.000

@<SCITEGIC>MOL_PROPERTY
Tether
SciTegic.value.DoubleValue
0.000

@<TRIPOS>MOLECULE
guest-s11_confgen4.mol2 : confsearch ligand conformer 84
          20          19           1
SMALL
USER_CHARGES
 
@<TRIPOS>ATOM
       1    N1      17.738018   17.927763   23.104920 N.4        1 MOL1        -0.5919
       2    H1      17.135599   17.398055   23.743670 H          1 MOL1         0.3682
       3    H2      17.543036   18.920278   23.265657 H          1 MOL1         0.3682
       4    H3      17.428216   17.708483   22.153010 H          1 MOL1         0.3682
       5    C1      19.204067   17.598958   23.311686 C.3        1 MOL1         0.0252
       6    H4      19.324726   16.521909   23.166751 H          1 MOL1         0.0971
       7    H5      19.462254   17.833243   24.347973 H          1 MOL1         0.0971
       8    C2      20.153479   18.350577   22.357979 C.3        1 MOL1        -0.1369
       9    H6      21.166171   17.956411   22.508633 H          1 MOL1         0.0997
      10    H7      19.880704   18.127084   21.318107 H          1 MOL1         0.0997
      11    C3      20.147539   19.882359   22.591909 C.3        1 MOL1        -0.1329
      12    H8      20.443426   20.099360   23.627683 H          1 MOL1         0.0997
      13    H9      19.125254   20.265870   22.475892 H          1 MOL1         0.0997
      14    C4      21.067861   20.658260   21.618273 C.3        1 MOL1        -0.1305
      15    H10     20.767195   20.455220   20.580852 H          1 MOL1         0.0997
      16    H11     20.918102   21.735651   21.775571 H          1 MOL1         0.0997
      17    C5      22.568695   20.334209   21.797851 C.3        1 MOL1        -0.2320
      18    H12     22.792573   19.294288   21.530060 H          1 MOL1         0.1008
      19    H13     23.180297   20.978620   21.153162 H          1 MOL1         0.1008
      20    H14     22.887319   20.499151   22.835289 H          1 MOL1         0.1008
@<TRIPOS>BOND
    1     1     2    1
    2     1     3    1
    3     1     4    1
    4     1     5    1
    5     5     6    1
    6     5     7    1
    7     5     8    1
    8     8     9    1
    9     8    10    1
   10     8    11    1
   11    11    12    1
   12    11    13    1
   13    11    14    1
   14    14    15    1
   15    14    16    1
   16    14    17    1
   17    17    18    1
   18    17    19    1
   19    17    20    1
@<TRIPOS>SUBSTRUCTURE
       1 MOL1            1 RESIDUE      1      MOL     
@<SCITEGIC>MOL_PROPERTY
VConf Rank
SciTegic.value.IntegerValue
84

@<SCITEGIC>MOL_PROPERTY
Conf_Id
SciTegic.value.IntegerValue
33

@<SCITEGIC>MOL_PROPERTY
Delta U+W
SciTegic.value.DoubleValue
0.703

@<SCITEGIC>MOL_PROPERTY
U+W
SciTegic.value.DoubleValue
-11.075

@<SCITEGIC>MOL_PROPERTY
Grad RMS
SciTegic.value.DoubleValue
0.000000

@<SCITEGIC>MOL_PROPERTY
U
SciTegic.value.DoubleValue
47.080

@<SCITEGIC>MOL_PROPERTY
W
SciTegic.value.DoubleValue
-58.154

@<SCITEGIC>MOL_PROPERTY
W(PB)
SciTegic.value.DoubleValue
-60.053

@<SCITEGIC>MOL_PROPERTY
W(SA)
SciTegic.value.DoubleValue
1.899

@<SCITEGIC>MOL_PROPERTY
Valence
SciTegic.value.DoubleValue
1.943

@<SCITEGIC>MOL_PROPERTY
Coulomb
SciTegic.value.DoubleValue
44.572

@<SCITEGIC>MOL_PROPERTY
VdW
SciTegic.value.DoubleValue
0.565

@<SCITEGIC>MOL_PROPERTY
VdW6
SciTegic.value.DoubleValue
-4.575

@<SCITEGIC>MOL_PROPERTY
VdW12
SciTegic.value.DoubleValue
5.139

@<SCITEGIC>MOL_PROPERTY
Bond
SciTegic.value.DoubleValue
0.158

@<SCITEGIC>MOL_PROPERTY
Angle
SciTegic.value.DoubleValue
0.700

@<SCITEGIC>MOL_PROPERTY
Pdih
SciTegic.value.DoubleValue
1.085

@<SCITEGIC>MOL_PROPERTY
Idih
SciTegic.value.DoubleValue
0.000

@<SCITEGIC>MOL_PROPERTY
Tether
SciTegic.value.DoubleValue
0.000

@<TRIPOS>MOLECULE
guest-s11_confgen4.mol2 : confsearch ligand conformer 85
          20          19           1
SMALL
USER_CHARGES
 
@<TRIPOS>ATOM
       1    N1      20.888431   18.855740   19.811627 N.4        1 MOL1        -0.5919
       2    H1      20.707779   18.544638   18.851377 H          1 MOL1         0.3682
       3    H2      21.500008   19.675632   19.748826 H          1 MOL1         0.3682
       4    H3      21.424206   18.112794   20.269792 H          1 MOL1         0.3682
       5    C1      19.602691   19.165584   20.553942 C.3        1 MOL1         0.0252
       6    H4      18.989511   18.260409   20.564466 H          1 MOL1         0.0971
       7    H5      19.068601   19.931049   19.984370 H          1 MOL1         0.0971
       8    C2      19.818594   19.662593   21.996935 C.3        1 MOL1        -0.1369
       9    H6      20.449032   20.561527   21.984389 H          1 MOL1         0.0997
      10    H7      18.844509   19.967771   22.398970 H          1 MOL1         0.0997
      11    C3      20.448779   18.583794   22.913547 C.3        1 MOL1        -0.1329
      12    H8      21.406032   18.255793   22.487295 H          1 MOL1         0.0997
      13    H9      19.801435   17.696234   22.939060 H          1 MOL1         0.0997
      14    C4      20.707007   19.076691   24.358313 C.3        1 MOL1        -0.1305
      15    H10     21.254932   18.295713   24.904018 H          1 MOL1         0.0997
      16    H11     21.365343   19.956514   24.339049 H          1 MOL1         0.0997
      17    C5      19.413743   19.411560   25.136192 C.3        1 MOL1        -0.2320
      18    H12     18.724266   18.557406   25.143146 H          1 MOL1         0.1008
      19    H13     19.647149   19.662091   26.179123 H          1 MOL1         0.1008
      20    H14     18.891405   20.272204   24.700617 H          1 MOL1         0.1008
@<TRIPOS>BOND
    1     1     2    1
    2     1     3    1
    3     1     4    1
    4     1     5    1
    5     5     6    1
    6     5     7    1
    7     5     8    1
    8     8     9    1
    9     8    10    1
   10     8    11    1
   11    11    12    1
   12    11    13    1
   13    11    14    1
   14    14    15    1
   15    14    16    1
   16    14    17    1
   17    17    18    1
   18    17    19    1
   19    17    20    1
@<TRIPOS>SUBSTRUCTURE
       1 MOL1            1 RESIDUE      1      MOL     
@<SCITEGIC>MOL_PROPERTY
VConf Rank
SciTegic.value.IntegerValue
85

@<SCITEGIC>MOL_PROPERTY
Conf_Id
SciTegic.value.IntegerValue
24

@<SCITEGIC>MOL_PROPERTY
Delta U+W
SciTegic.value.DoubleValue
0.847

@<SCITEGIC>MOL_PROPERTY
U+W
SciTegic.value.DoubleValue
-10.931

@<SCITEGIC>MOL_PROPERTY
Grad RMS
SciTegic.value.DoubleValue
0.000000

@<SCITEGIC>MOL_PROPERTY
U
SciTegic.value.DoubleValue
47.080

@<SCITEGIC>MOL_PROPERTY
W
SciTegic.value.DoubleValue
-58.011

@<SCITEGIC>MOL_PROPERTY
W(PB)
SciTegic.value.DoubleValue
-59.914

@<SCITEGIC>MOL_PROPERTY
W(SA)
SciTegic.value.DoubleValue
1.903

@<SCITEGIC>MOL_PROPERTY
Valence
SciTegic.value.DoubleValue
1.943

@<SCITEGIC>MOL_PROPERTY
Coulomb
SciTegic.value.DoubleValue
44.572

@<SCITEGIC>MOL_PROPERTY
VdW
SciTegic.value.DoubleValue
0.565

@<SCITEGIC>MOL_PROPERTY
VdW6
SciTegic.value.DoubleValue
-4.575

@<SCITEGIC>MOL_PROPERTY
VdW12
SciTegic.value.DoubleValue
5.140

@<SCITEGIC>MOL_PROPERTY
Bond
SciTegic.value.DoubleValue
0.158

@<SCITEGIC>MOL_PROPERTY
Angle
SciTegic.value.DoubleValue
0.700

@<SCITEGIC>MOL_PROPERTY
Pdih
SciTegic.value.DoubleValue
1.085

@<SCITEGIC>MOL_PROPERTY
Idih
SciTegic.value.DoubleValue
0.000

@<SCITEGIC>MOL_PROPERTY
Tether
SciTegic.value.DoubleValue
0.000

@<TRIPOS>MOLECULE
guest-s11_confgen4.mol2 : confsearch ligand conformer 86
          20          19           1
SMALL
USER_CHARGES
 
@<TRIPOS>ATOM
       1    N1      22.091689   19.011528   20.575801 N.4        1 MOL1        -0.5919
       2    H1      22.901593   19.628344   20.452989 H          1 MOL1         0.3682
       3    H2      22.441362   18.139646   20.985401 H          1 MOL1         0.3682
       4    H3      21.745265   18.786096   19.637995 H          1 MOL1         0.3682
       5    C1      21.021140   19.652202   21.435911 C.3        1 MOL1         0.0252
       6    H4      20.716867   20.586657   20.956755 H          1 MOL1         0.0971
       7    H5      21.467483   19.891768   22.404606 H          1 MOL1         0.0971
       8    C2      19.789373   18.750342   21.640911 C.3        1 MOL1        -0.1369
       9    H6      19.373815   18.481956   20.660585 H          1 MOL1         0.0997
      10    H7      20.095082   17.808218   22.113563 H          1 MOL1         0.0997
      11    C3      18.681695   19.430890   22.483466 C.3        1 MOL1        -0.1329
      12    H8      17.832510   18.740338   22.579827 H          1 MOL1         0.0997
      13    H9      18.300823   20.302921   21.933929 H          1 MOL1         0.0997
      14    C4      19.126650   19.887374   23.896570 C.3        1 MOL1        -0.1305
      15    H10     19.904874   20.658798   23.818802 H          1 MOL1         0.0997
      16    H11     18.273346   20.369798   24.393583 H          1 MOL1         0.0997
      17    C5      19.630684   18.728431   24.786407 C.3        1 MOL1        -0.2320
      18    H12     19.844014   19.087810   25.801415 H          1 MOL1         0.1008
      19    H13     18.877724   17.933382   24.863378 H          1 MOL1         0.1008
      20    H14     20.555292   18.289792   24.391019 H          1 MOL1         0.1008
@<TRIPOS>BOND
    1     1     2    1
    2     1     3    1
    3     1     4    1
    4     1     5    1
    5     5     6    1
    6     5     7    1
    7     5     8    1
    8     8     9    1
    9     8    10    1
   10     8    11    1
   11    11    12    1
   12    11    13    1
   13    11    14    1
   14    14    15    1
   15    14    16    1
   16    14    17    1
   17    17    18    1
   18    17    19    1
   19    17    20    1
@<TRIPOS>SUBSTRUCTURE
       1 MOL1            1 RESIDUE      1      MOL     
@<SCITEGIC>MOL_PROPERTY
VConf Rank
SciTegic.value.IntegerValue
86

@<SCITEGIC>MOL_PROPERTY
Conf_Id
SciTegic.value.IntegerValue
64

@<SCITEGIC>MOL_PROPERTY
Delta U+W
SciTegic.value.DoubleValue
0.707

@<SCITEGIC>MOL_PROPERTY
U+W
SciTegic.value.DoubleValue
-11.070

@<SCITEGIC>MOL_PROPERTY
Grad RMS
SciTegic.value.DoubleValue
0.000000

@<SCITEGIC>MOL_PROPERTY
U
SciTegic.value.DoubleValue
47.077

@<SCITEGIC>MOL_PROPERTY
W
SciTegic.value.DoubleValue
-58.148

@<SCITEGIC>MOL_PROPERTY
W(PB)
SciTegic.value.DoubleValue
-60.054

@<SCITEGIC>MOL_PROPERTY
W(SA)
SciTegic.value.DoubleValue
1.906

@<SCITEGIC>MOL_PROPERTY
Valence
SciTegic.value.DoubleValue
2.039

@<SCITEGIC>MOL_PROPERTY
Coulomb
SciTegic.value.DoubleValue
44.655

@<SCITEGIC>MOL_PROPERTY
VdW
SciTegic.value.DoubleValue
0.383

@<SCITEGIC>MOL_PROPERTY
VdW6
SciTegic.value.DoubleValue
-4.912

@<SCITEGIC>MOL_PROPERTY
VdW12
SciTegic.value.DoubleValue
5.295

@<SCITEGIC>MOL_PROPERTY
Bond
SciTegic.value.DoubleValue
0.159

@<SCITEGIC>MOL_PROPERTY
Angle
SciTegic.value.DoubleValue
0.856

@<SCITEGIC>MOL_PROPERTY
Pdih
SciTegic.value.DoubleValue
1.024

@<SCITEGIC>MOL_PROPERTY
Idih
SciTegic.value.DoubleValue
0.000

@<SCITEGIC>MOL_PROPERTY
Tether
SciTegic.value.DoubleValue
0.000

@<TRIPOS>MOLECULE
guest-s11_confgen4.mol2 : confsearch ligand conformer 87
          20          19           1
SMALL
USER_CHARGES
 
@<TRIPOS>ATOM
       1    N1      21.804514   18.663757   20.297960 N.4        1 MOL1        -0.5919
       2    H1      22.776831   18.429693   20.521837 H          1 MOL1         0.3682
       3    H2      21.326623   17.784874   20.075684 H          1 MOL1         0.3682
       4    H3      21.823455   19.218435   19.435718 H          1 MOL1         0.3682
       5    C1      21.125857   19.406887   21.430881 C.3        1 MOL1         0.0252
       6    H4      20.108750   19.649141   21.111835 H          1 MOL1         0.0971
       7    H5      21.667425   20.342605   21.593719 H          1 MOL1         0.0971
       8    C2      21.080089   18.600084   22.742215 C.3        1 MOL1        -0.1369
       9    H6      20.544591   17.656374   22.577562 H          1 MOL1         0.0997
      10    H7      22.103501   18.326586   23.031328 H          1 MOL1         0.0997
      11    C3      20.425161   19.384840   23.906355 C.3        1 MOL1        -0.1329
      12    H8      21.045942   20.261101   24.139357 H          1 MOL1         0.0997
      13    H9      20.436306   18.758388   24.808961 H          1 MOL1         0.0997
      14    C4      18.974167   19.859206   23.636507 C.3        1 MOL1        -0.1305
      15    H10     18.618952   20.416588   24.514590 H          1 MOL1         0.0997
      16    H11     18.957010   20.571899   22.800714 H          1 MOL1         0.0997
      17    C5      17.991727   18.700445   23.351743 C.3        1 MOL1        -0.2320
      18    H12     18.005362   17.962450   24.164241 H          1 MOL1         0.1008
      19    H13     16.965779   19.079916   23.260431 H          1 MOL1         0.1008
      20    H14     18.237175   18.185365   22.414682 H          1 MOL1         0.1008
@<TRIPOS>BOND
    1     1     2    1
    2     1     3    1
    3     1     4    1
    4     1     5    1
    5     5     6    1
    6     5     7    1
    7     5     8    1
    8     8     9    1
    9     8    10    1
   10     8    11    1
   11    11    12    1
   12    11    13    1
   13    11    14    1
   14    14    15    1
   15    14    16    1
   16    14    17    1
   17    17    18    1
   18    17    19    1
   19    17    20    1
@<TRIPOS>SUBSTRUCTURE
       1 MOL1            1 RESIDUE      1      MOL     
@<SCITEGIC>MOL_PROPERTY
VConf Rank
SciTegic.value.IntegerValue
87

@<SCITEGIC>MOL_PROPERTY
Conf_Id
SciTegic.value.IntegerValue
22

@<SCITEGIC>MOL_PROPERTY
Delta U+W
SciTegic.value.DoubleValue
0.731

@<SCITEGIC>MOL_PROPERTY
U+W
SciTegic.value.DoubleValue
-11.047

@<SCITEGIC>MOL_PROPERTY
Grad RMS
SciTegic.value.DoubleValue
0.000000

@<SCITEGIC>MOL_PROPERTY
U
SciTegic.value.DoubleValue
47.078

@<SCITEGIC>MOL_PROPERTY
W
SciTegic.value.DoubleValue
-58.125

@<SCITEGIC>MOL_PROPERTY
W(PB)
SciTegic.value.DoubleValue
-60.031

@<SCITEGIC>MOL_PROPERTY
W(SA)
SciTegic.value.DoubleValue
1.906

@<SCITEGIC>MOL_PROPERTY
Valence
SciTegic.value.DoubleValue
2.039

@<SCITEGIC>MOL_PROPERTY
Coulomb
SciTegic.value.DoubleValue
44.655

@<SCITEGIC>MOL_PROPERTY
VdW
SciTegic.value.DoubleValue
0.383

@<SCITEGIC>MOL_PROPERTY
VdW6
SciTegic.value.DoubleValue
-4.913

@<SCITEGIC>MOL_PROPERTY
VdW12
SciTegic.value.DoubleValue
5.296

@<SCITEGIC>MOL_PROPERTY
Bond
SciTegic.value.DoubleValue
0.159

@<SCITEGIC>MOL_PROPERTY
Angle
SciTegic.value.DoubleValue
0.856

@<SCITEGIC>MOL_PROPERTY
Pdih
SciTegic.value.DoubleValue
1.024

@<SCITEGIC>MOL_PROPERTY
Idih
SciTegic.value.DoubleValue
0.000

@<SCITEGIC>MOL_PROPERTY
Tether
SciTegic.value.DoubleValue
0.000

@<TRIPOS>MOLECULE
guest-s11_confgen4.mol2 : confsearch ligand conformer 88
          20          19           1
SMALL
USER_CHARGES
 
@<TRIPOS>ATOM
       1    N1      20.832852   18.708838   25.119525 N.4        1 MOL1        -0.5919
       2    H1      21.295070   17.796583   25.052588 H          1 MOL1         0.3682
       3    H2      21.523433   19.369869   25.488913 H          1 MOL1         0.3682
       4    H3      20.098490   18.618778   25.829522 H          1 MOL1         0.3682
       5    C1      20.274169   19.160022   23.785015 C.3        1 MOL1         0.0252
       6    H4      19.774323   20.120803   23.934842 H          1 MOL1         0.0971
       7    H5      19.528830   18.425274   23.472154 H          1 MOL1         0.0971
       8    C2      21.351750   19.299616   22.695059 C.3        1 MOL1        -0.1369
       9    H6      22.153850   19.947713   23.072591 H          1 MOL1         0.0997
      10    H7      21.808854   18.319402   22.505263 H          1 MOL1         0.0997
      11    C3      20.825842   19.894780   21.364227 C.3        1 MOL1        -0.1329
      12    H8      21.690500   20.032537   20.700193 H          1 MOL1         0.0997
      13    H9      20.418974   20.901270   21.533891 H          1 MOL1         0.0997
      14    C4      19.786694   19.015537   20.621064 C.3        1 MOL1        -0.1305
      15    H10     19.864449   19.225266   19.544927 H          1 MOL1         0.0997
      16    H11     20.033581   17.951200   20.739271 H          1 MOL1         0.0997
      17    C5      18.323392   19.277543   21.048776 C.3        1 MOL1        -0.2320
      18    H12     18.140056   19.004163   22.093058 H          1 MOL1         0.1008
      19    H13     18.059568   20.335542   20.922134 H          1 MOL1         0.1008
      20    H14     17.633930   18.687875   20.430781 H          1 MOL1         0.1008
@<TRIPOS>BOND
    1     1     2    1
    2     1     3    1
    3     1     4    1
    4     1     5    1
    5     5     6    1
    6     5     7    1
    7     5     8    1
    8     8     9    1
    9     8    10    1
   10     8    11    1
   11    11    12    1
   12    11    13    1
   13    11    14    1
   14    14    15    1
   15    14    16    1
   16    14    17    1
   17    17    18    1
   18    17    19    1
   19    17    20    1
@<TRIPOS>SUBSTRUCTURE
       1 MOL1            1 RESIDUE      1      MOL     
@<SCITEGIC>MOL_PROPERTY
VConf Rank
SciTegic.value.IntegerValue
88

@<SCITEGIC>MOL_PROPERTY
Conf_Id
SciTegic.value.IntegerValue
61

@<SCITEGIC>MOL_PROPERTY
Delta U+W
SciTegic.value.DoubleValue
2.669

@<SCITEGIC>MOL_PROPERTY
U+W
SciTegic.value.DoubleValue
-9.108

@<SCITEGIC>MOL_PROPERTY
Grad RMS
SciTegic.value.DoubleValue
0.000000

@<SCITEGIC>MOL_PROPERTY
U
SciTegic.value.DoubleValue
48.916

@<SCITEGIC>MOL_PROPERTY
W
SciTegic.value.DoubleValue
-58.025

@<SCITEGIC>MOL_PROPERTY
W(PB)
SciTegic.value.DoubleValue
-59.935

@<SCITEGIC>MOL_PROPERTY
W(SA)
SciTegic.value.DoubleValue
1.911

@<SCITEGIC>MOL_PROPERTY
Valence
SciTegic.value.DoubleValue
3.785

@<SCITEGIC>MOL_PROPERTY
Coulomb
SciTegic.value.DoubleValue
44.716

@<SCITEGIC>MOL_PROPERTY
VdW
SciTegic.value.DoubleValue
0.415

@<SCITEGIC>MOL_PROPERTY
VdW6
SciTegic.value.DoubleValue
-4.836

@<SCITEGIC>MOL_PROPERTY
VdW12
SciTegic.value.DoubleValue
5.251

@<SCITEGIC>MOL_PROPERTY
Bond
SciTegic.value.DoubleValue
0.175

@<SCITEGIC>MOL_PROPERTY
Angle
SciTegic.value.DoubleValue
1.195

@<SCITEGIC>MOL_PROPERTY
Pdih
SciTegic.value.DoubleValue
2.415

@<SCITEGIC>MOL_PROPERTY
Idih
SciTegic.value.DoubleValue
0.000

@<SCITEGIC>MOL_PROPERTY
Tether
SciTegic.value.DoubleValue
0.000

@<TRIPOS>MOLECULE
guest-s11_confgen4.mol2 : confsearch ligand conformer 89
          20          19           1
SMALL
USER_CHARGES
 
@<TRIPOS>ATOM
       1    N1      22.380596   19.156883   22.888080 N.4        1 MOL1        -0.5919
       2    H1      23.317104   18.891918   22.564992 H          1 MOL1         0.3682
       3    H2      22.495732   19.584076   23.812500 H          1 MOL1         0.3682
       4    H3      21.851744   18.290790   23.019316 H          1 MOL1         0.3682
       5    C1      21.695966   20.097584   21.914974 C.3        1 MOL1         0.0252
       6    H4      21.652311   19.614516   20.935139 H          1 MOL1         0.0971
       7    H5      22.332207   20.982490   21.827228 H          1 MOL1         0.0971
       8    C2      20.281140   20.538863   22.345108 C.3        1 MOL1        -0.1369
       9    H6      20.269292   20.771684   23.418173 H          1 MOL1         0.0997
      10    H7      20.055055   21.482149   21.830356 H          1 MOL1         0.0997
      11    C3      19.157418   19.528371   21.998810 C.3        1 MOL1        -0.1329
      12    H8      19.145694   19.351344   20.914379 H          1 MOL1         0.0997
      13    H9      18.192347   19.993943   22.242449 H          1 MOL1         0.0997
      14    C4      19.260388   18.175345   22.741124 C.3        1 MOL1        -0.1305
      15    H10     20.144696   17.624188   22.397504 H          1 MOL1         0.0997
      16    H11     19.380922   18.348889   23.819686 H          1 MOL1         0.0997
      17    C5      18.011971   17.299394   22.501993 C.3        1 MOL1        -0.2320
      18    H12     18.104993   16.339903   23.027135 H          1 MOL1         0.1008
      19    H13     17.103992   17.796034   22.868253 H          1 MOL1         0.1008
      20    H14     17.877730   17.086666   21.433351 H          1 MOL1         0.1008
@<TRIPOS>BOND
    1     1     2    1
    2     1     3    1
    3     1     4    1
    4     1     5    1
    5     5     6    1
    6     5     7    1
    7     5     8    1
    8     8     9    1
    9     8    10    1
   10     8    11    1
   11    11    12    1
   12    11    13    1
   13    11    14    1
   14    14    15    1
   15    14    16    1
   16    14    17    1
   17    17    18    1
   18    17    19    1
   19    17    20    1
@<TRIPOS>SUBSTRUCTURE
       1 MOL1            1 RESIDUE      1      MOL     
@<SCITEGIC>MOL_PROPERTY
VConf Rank
SciTegic.value.IntegerValue
89

@<SCITEGIC>MOL_PROPERTY
Conf_Id
SciTegic.value.IntegerValue
69

@<SCITEGIC>MOL_PROPERTY
Delta U+W
SciTegic.value.DoubleValue
2.811

@<SCITEGIC>MOL_PROPERTY
U+W
SciTegic.value.DoubleValue
-8.967

@<SCITEGIC>MOL_PROPERTY
Grad RMS
SciTegic.value.DoubleValue
0.000000

@<SCITEGIC>MOL_PROPERTY
U
SciTegic.value.DoubleValue
49.216

@<SCITEGIC>MOL_PROPERTY
W
SciTegic.value.DoubleValue
-58.183

@<SCITEGIC>MOL_PROPERTY
W(PB)
SciTegic.value.DoubleValue
-60.064

@<SCITEGIC>MOL_PROPERTY
W(SA)
SciTegic.value.DoubleValue
1.881

@<SCITEGIC>MOL_PROPERTY
Valence
SciTegic.value.DoubleValue
2.929

@<SCITEGIC>MOL_PROPERTY
Coulomb
SciTegic.value.DoubleValue
46.006

@<SCITEGIC>MOL_PROPERTY
VdW
SciTegic.value.DoubleValue
0.281

@<SCITEGIC>MOL_PROPERTY
VdW6
SciTegic.value.DoubleValue
-4.909

@<SCITEGIC>MOL_PROPERTY
VdW12
SciTegic.value.DoubleValue
5.190

@<SCITEGIC>MOL_PROPERTY
Bond
SciTegic.value.DoubleValue
0.156

@<SCITEGIC>MOL_PROPERTY
Angle
SciTegic.value.DoubleValue
0.974

@<SCITEGIC>MOL_PROPERTY
Pdih
SciTegic.value.DoubleValue
1.799

@<SCITEGIC>MOL_PROPERTY
Idih
SciTegic.value.DoubleValue
0.000

@<SCITEGIC>MOL_PROPERTY
Tether
SciTegic.value.DoubleValue
0.000

@<TRIPOS>MOLECULE
guest-s11_confgen4.mol2 : confsearch ligand conformer 90
          20          19           1
SMALL
USER_CHARGES
 
@<TRIPOS>ATOM
       1    N1      18.811532   17.472414   21.539806 N.4        1 MOL1        -0.5919
       2    H1      19.791179   17.599178   21.272876 H          1 MOL1         0.3682
       3    H2      18.780191   16.707665   22.221333 H          1 MOL1         0.3682
       4    H3      18.311730   17.147007   20.705569 H          1 MOL1         0.3682
       5    C1      18.205766   18.746846   22.096079 C.3        1 MOL1         0.0252
       6    H4      17.163718   18.523265   22.340429 H          1 MOL1         0.0971
       7    H5      18.212788   19.507855   21.311124 H          1 MOL1         0.0971
       8    C2      18.910629   19.288646   23.357467 C.3        1 MOL1        -0.1369
       9    H6      18.193409   19.924701   23.893097 H          1 MOL1         0.0997
      10    H7      19.147988   18.462210   24.040460 H          1 MOL1         0.0997
      11    C3      20.177335   20.136595   23.074251 C.3        1 MOL1        -0.1329
      12    H8      20.523829   20.561644   24.026487 H          1 MOL1         0.0997
      13    H9      19.910737   20.991546   22.437503 H          1 MOL1         0.0997
      14    C4      21.341746   19.352902   22.424416 C.3        1 MOL1        -0.1305
      15    H10     21.542711   18.437549   22.998599 H          1 MOL1         0.0997
      16    H11     21.067813   19.047392   21.406833 H          1 MOL1         0.0997
      17    C5      22.628541   20.202619   22.352608 C.3        1 MOL1        -0.2320
      18    H12     22.963581   20.498939   23.355187 H          1 MOL1         0.1008
      19    H13     23.441695   19.635976   21.880645 H          1 MOL1         0.1008
      20    H14     22.467155   21.114436   21.762850 H          1 MOL1         0.1008
@<TRIPOS>BOND
    1     1     2    1
    2     1     3    1
    3     1     4    1
    4     1     5    1
    5     5     6    1
    6     5     7    1
    7     5     8    1
    8     8     9    1
    9     8    10    1
   10     8    11    1
   11    11    12    1
   12    11    13    1
   13    11    14    1
   14    14    15    1
   15    14    16    1
   16    14    17    1
   17    17    18    1
   18    17    19    1
   19    17    20    1
@<TRIPOS>SUBSTRUCTURE
       1 MOL1            1 RESIDUE      1      MOL     
@<SCITEGIC>MOL_PROPERTY
VConf Rank
SciTegic.value.IntegerValue
90

@<SCITEGIC>MOL_PROPERTY
Conf_Id
SciTegic.value.IntegerValue
26

@<SCITEGIC>MOL_PROPERTY
Delta U+W
SciTegic.value.DoubleValue
2.809

@<SCITEGIC>MOL_PROPERTY
U+W
SciTegic.value.DoubleValue
-8.969

@<SCITEGIC>MOL_PROPERTY
Grad RMS
SciTegic.value.DoubleValue
0.000000

@<SCITEGIC>MOL_PROPERTY
U
SciTegic.value.DoubleValue
49.216

@<SCITEGIC>MOL_PROPERTY
W
SciTegic.value.DoubleValue
-58.185

@<SCITEGIC>MOL_PROPERTY
W(PB)
SciTegic.value.DoubleValue
-60.088

@<SCITEGIC>MOL_PROPERTY
W(SA)
SciTegic.value.DoubleValue
1.903

@<SCITEGIC>MOL_PROPERTY
Valence
SciTegic.value.DoubleValue
2.929

@<SCITEGIC>MOL_PROPERTY
Coulomb
SciTegic.value.DoubleValue
46.006

@<SCITEGIC>MOL_PROPERTY
VdW
SciTegic.value.DoubleValue
0.281

@<SCITEGIC>MOL_PROPERTY
VdW6
SciTegic.value.DoubleValue
-4.909

@<SCITEGIC>MOL_PROPERTY
VdW12
SciTegic.value.DoubleValue
5.190

@<SCITEGIC>MOL_PROPERTY
Bond
SciTegic.value.DoubleValue
0.156

@<SCITEGIC>MOL_PROPERTY
Angle
SciTegic.value.DoubleValue
0.974

@<SCITEGIC>MOL_PROPERTY
Pdih
SciTegic.value.DoubleValue
1.799

@<SCITEGIC>MOL_PROPERTY
Idih
SciTegic.value.DoubleValue
0.000

@<SCITEGIC>MOL_PROPERTY
Tether
SciTegic.value.DoubleValue
0.000

@<TRIPOS>MOLECULE
guest-s11_confgen4.mol2 : confsearch ligand conformer 91
          20          19           1
SMALL
USER_CHARGES
 
@<TRIPOS>ATOM
       1    N1      21.110279   17.531092   20.981219 N.4        1 MOL1        -0.5919
       2    H1      21.048621   18.409571   20.458330 H          1 MOL1         0.3682
       3    H2      22.105691   17.322286   21.106089 H          1 MOL1         0.3682
       4    H3      20.724203   16.795623   20.380104 H          1 MOL1         0.3682
       5    C1      20.381185   17.615524   22.307980 C.3        1 MOL1         0.0252
       6    H4      20.461400   16.639745   22.794735 H          1 MOL1         0.0971
       7    H5      19.324443   17.806458   22.103602 H          1 MOL1         0.0971
       8    C2      20.933356   18.704347   23.250246 C.3        1 MOL1        -0.1369
       9    H6      20.402732   18.644715   24.209106 H          1 MOL1         0.0997
      10    H7      21.985145   18.484358   23.476040 H          1 MOL1         0.0997
      11    C3      20.823394   20.144153   22.682917 C.3        1 MOL1        -0.1329
      12    H8      21.486852   20.243832   21.813380 H          1 MOL1         0.0997
      13    H9      21.208235   20.849650   23.432163 H          1 MOL1         0.0997
      14    C4      19.391402   20.574266   22.273731 C.3        1 MOL1        -0.1305
      15    H10     19.434225   21.594865   21.868275 H          1 MOL1         0.0997
      16    H11     19.022854   19.940338   21.455926 H          1 MOL1         0.0997
      17    C5      18.384479   20.546449   23.445983 C.3        1 MOL1        -0.2320
      18    H12     18.737868   21.160256   24.284624 H          1 MOL1         0.1008
      19    H13     17.411778   20.942559   23.126868 H          1 MOL1         0.1008
      20    H14     18.220730   19.525307   23.812122 H          1 MOL1         0.1008
@<TRIPOS>BOND
    1     1     2    1
    2     1     3    1
    3     1     4    1
    4     1     5    1
    5     5     6    1
    6     5     7    1
    7     5     8    1
    8     8     9    1
    9     8    10    1
   10     8    11    1
   11    11    12    1
   12    11    13    1
   13    11    14    1
   14    14    15    1
   15    14    16    1
   16    14    17    1
   17    17    18    1
   18    17    19    1
   19    17    20    1
@<TRIPOS>SUBSTRUCTURE
       1 MOL1            1 RESIDUE      1      MOL     
@<SCITEGIC>MOL_PROPERTY
VConf Rank
SciTegic.value.IntegerValue
91

@<SCITEGIC>MOL_PROPERTY
Conf_Id
SciTegic.value.IntegerValue
2

@<SCITEGIC>MOL_PROPERTY
Delta U+W
SciTegic.value.DoubleValue
0.994

@<SCITEGIC>MOL_PROPERTY
U+W
SciTegic.value.DoubleValue
-10.784

@<SCITEGIC>MOL_PROPERTY
Grad RMS
SciTegic.value.DoubleValue
0.000000

@<SCITEGIC>MOL_PROPERTY
U
SciTegic.value.DoubleValue
47.562

@<SCITEGIC>MOL_PROPERTY
W
SciTegic.value.DoubleValue
-58.346

@<SCITEGIC>MOL_PROPERTY
W(PB)
SciTegic.value.DoubleValue
-60.221

@<SCITEGIC>MOL_PROPERTY
W(SA)
SciTegic.value.DoubleValue
1.875

@<SCITEGIC>MOL_PROPERTY
Valence
SciTegic.value.DoubleValue
2.149

@<SCITEGIC>MOL_PROPERTY
Coulomb
SciTegic.value.DoubleValue
45.034

@<SCITEGIC>MOL_PROPERTY
VdW
SciTegic.value.DoubleValue
0.378

@<SCITEGIC>MOL_PROPERTY
VdW6
SciTegic.value.DoubleValue
-5.599

@<SCITEGIC>MOL_PROPERTY
VdW12
SciTegic.value.DoubleValue
5.977

@<SCITEGIC>MOL_PROPERTY
Bond
SciTegic.value.DoubleValue
0.185

@<SCITEGIC>MOL_PROPERTY
Angle
SciTegic.value.DoubleValue
0.935

@<SCITEGIC>MOL_PROPERTY
Pdih
SciTegic.value.DoubleValue
1.028

@<SCITEGIC>MOL_PROPERTY
Idih
SciTegic.value.DoubleValue
0.000

@<SCITEGIC>MOL_PROPERTY
Tether
SciTegic.value.DoubleValue
0.000

@<TRIPOS>MOLECULE
guest-s11_confgen4.mol2 : confsearch ligand conformer 92
          20          19           1
SMALL
USER_CHARGES
 
@<TRIPOS>ATOM
       1    N1      17.889023   19.839039   22.725546 N.4        1 MOL1        -0.5919
       2    H1      17.379535   20.095300   21.874200 H          1 MOL1         0.3682
       3    H2      17.876793   18.816930   22.789448 H          1 MOL1         0.3682
       4    H3      17.345069   20.196394   23.517835 H          1 MOL1         0.3682
       5    C1      19.303924   20.384047   22.721429 C.3        1 MOL1         0.0252
       6    H4      19.778417   20.105057   23.665862 H          1 MOL1         0.0971
       7    H5      19.240488   21.474928   22.683190 H          1 MOL1         0.0971
       8    C2      20.158860   19.879497   21.541259 C.3        1 MOL1        -0.1369
       9    H6      19.691562   20.194153   20.598782 H          1 MOL1         0.0997
      10    H7      21.135340   20.379536   21.572578 H          1 MOL1         0.0997
      11    C3      20.361817   18.341503   21.521874 C.3        1 MOL1        -0.1329
      12    H8      21.006381   18.080722   20.671151 H          1 MOL1         0.0997
      13    H9      19.399204   17.850313   21.326131 H          1 MOL1         0.0997
      14    C4      20.972998   17.749844   22.817804 C.3        1 MOL1        -0.1305
      15    H10     20.296637   17.915183   23.667330 H          1 MOL1         0.0997
      16    H11     21.051402   16.659698   22.702556 H          1 MOL1         0.0997
      17    C5      22.371838   18.316903   23.150267 C.3        1 MOL1        -0.2320
      18    H12     22.326759   19.387279   23.386628 H          1 MOL1         0.1008
      19    H13     22.797343   17.803982   24.022473 H          1 MOL1         0.1008
      20    H14     23.063821   18.178964   22.309380 H          1 MOL1         0.1008
@<TRIPOS>BOND
    1     1     2    1
    2     1     3    1
    3     1     4    1
    4     1     5    1
    5     5     6    1
    6     5     7    1
    7     5     8    1
    8     8     9    1
    9     8    10    1
   10     8    11    1
   11    11    12    1
   12    11    13    1
   13    11    14    1
   14    14    15    1
   15    14    16    1
   16    14    17    1
   17    17    18    1
   18    17    19    1
   19    17    20    1
@<TRIPOS>SUBSTRUCTURE
       1 MOL1            1 RESIDUE      1      MOL     
@<SCITEGIC>MOL_PROPERTY
VConf Rank
SciTegic.value.IntegerValue
92

@<SCITEGIC>MOL_PROPERTY
Conf_Id
SciTegic.value.IntegerValue
1

@<SCITEGIC>MOL_PROPERTY
Delta U+W
SciTegic.value.DoubleValue
1.032

@<SCITEGIC>MOL_PROPERTY
U+W
SciTegic.value.DoubleValue
-10.746

@<SCITEGIC>MOL_PROPERTY
Grad RMS
SciTegic.value.DoubleValue
0.000000

@<SCITEGIC>MOL_PROPERTY
U
SciTegic.value.DoubleValue
47.562

@<SCITEGIC>MOL_PROPERTY
W
SciTegic.value.DoubleValue
-58.308

@<SCITEGIC>MOL_PROPERTY
W(PB)
SciTegic.value.DoubleValue
-60.184

@<SCITEGIC>MOL_PROPERTY
W(SA)
SciTegic.value.DoubleValue
1.877

@<SCITEGIC>MOL_PROPERTY
Valence
SciTegic.value.DoubleValue
2.149

@<SCITEGIC>MOL_PROPERTY
Coulomb
SciTegic.value.DoubleValue
45.035

@<SCITEGIC>MOL_PROPERTY
VdW
SciTegic.value.DoubleValue
0.378

@<SCITEGIC>MOL_PROPERTY
VdW6
SciTegic.value.DoubleValue
-5.599

@<SCITEGIC>MOL_PROPERTY
VdW12
SciTegic.value.DoubleValue
5.978

@<SCITEGIC>MOL_PROPERTY
Bond
SciTegic.value.DoubleValue
0.185

@<SCITEGIC>MOL_PROPERTY
Angle
SciTegic.value.DoubleValue
0.935

@<SCITEGIC>MOL_PROPERTY
Pdih
SciTegic.value.DoubleValue
1.028

@<SCITEGIC>MOL_PROPERTY
Idih
SciTegic.value.DoubleValue
0.000

@<SCITEGIC>MOL_PROPERTY
Tether
SciTegic.value.DoubleValue
0.000

@<TRIPOS>MOLECULE
guest-s11_confgen4.mol2 : confsearch ligand conformer 93
          20          19           1
SMALL
USER_CHARGES
 
@<TRIPOS>ATOM
       1    N1      20.526453   17.141873   23.697362 N.4        1 MOL1        -0.5919
       2    H1      19.770822   16.449705   23.701297 H          1 MOL1         0.3682
       3    H2      21.021579   17.044618   22.806253 H          1 MOL1         0.3682
       4    H3      21.183498   16.869984   24.436086 H          1 MOL1         0.3682
       5    C1      20.002658   18.550500   23.900258 C.3        1 MOL1         0.0252
       6    H4      20.857755   19.228047   23.916387 H          1 MOL1         0.0971
       7    H5      19.527549   18.585550   24.884416 H          1 MOL1         0.0971
       8    C2      18.983404   18.996926   22.830427 C.3        1 MOL1        -0.1369
       9    H6      18.146561   18.285994   22.839905 H          1 MOL1         0.0997
      10    H7      18.556481   19.966995   23.117345 H          1 MOL1         0.0997
      11    C3      19.551468   19.084307   21.388210 C.3        1 MOL1        -0.1329
      12    H8      18.709402   18.989367   20.688686 H          1 MOL1         0.0997
      13    H9      20.204678   18.228004   21.176584 H          1 MOL1         0.0997
      14    C4      20.286447   20.407219   21.050951 C.3        1 MOL1        -0.1305
      15    H10     20.557976   20.388419   19.986120 H          1 MOL1         0.0997
      16    H11     19.597966   21.255162   21.172476 H          1 MOL1         0.0997
      17    C5      21.565592   20.661507   21.878633 C.3        1 MOL1        -0.2320
      18    H12     22.226199   19.784972   21.871821 H          1 MOL1         0.1008
      19    H13     22.127545   21.507719   21.462625 H          1 MOL1         0.1008
      20    H14     21.325256   20.913893   22.918149 H          1 MOL1         0.1008
@<TRIPOS>BOND
    1     1     2    1
    2     1     3    1
    3     1     4    1
    4     1     5    1
    5     5     6    1
    6     5     7    1
    7     5     8    1
    8     8     9    1
    9     8    10    1
   10     8    11    1
   11    11    12    1
   12    11    13    1
   13    11    14    1
   14    14    15    1
   15    14    16    1
   16    14    17    1
   17    17    18    1
   18    17    19    1
   19    17    20    1
@<TRIPOS>SUBSTRUCTURE
       1 MOL1            1 RESIDUE      1      MOL     
@<SCITEGIC>MOL_PROPERTY
VConf Rank
SciTegic.value.IntegerValue
93

@<SCITEGIC>MOL_PROPERTY
Conf_Id
SciTegic.value.IntegerValue
80

@<SCITEGIC>MOL_PROPERTY
Delta U+W
SciTegic.value.DoubleValue
2.920

@<SCITEGIC>MOL_PROPERTY
U+W
SciTegic.value.DoubleValue
-8.857

@<SCITEGIC>MOL_PROPERTY
Grad RMS
SciTegic.value.DoubleValue
0.000000

@<SCITEGIC>MOL_PROPERTY
U
SciTegic.value.DoubleValue
49.434

@<SCITEGIC>MOL_PROPERTY
W
SciTegic.value.DoubleValue
-58.292

@<SCITEGIC>MOL_PROPERTY
W(PB)
SciTegic.value.DoubleValue
-60.170

@<SCITEGIC>MOL_PROPERTY
W(SA)
SciTegic.value.DoubleValue
1.879

@<SCITEGIC>MOL_PROPERTY
Valence
SciTegic.value.DoubleValue
3.798

@<SCITEGIC>MOL_PROPERTY
Coulomb
SciTegic.value.DoubleValue
45.253

@<SCITEGIC>MOL_PROPERTY
VdW
SciTegic.value.DoubleValue
0.384

@<SCITEGIC>MOL_PROPERTY
VdW6
SciTegic.value.DoubleValue
-5.595

@<SCITEGIC>MOL_PROPERTY
VdW12
SciTegic.value.DoubleValue
5.979

@<SCITEGIC>MOL_PROPERTY
Bond
SciTegic.value.DoubleValue
0.198

@<SCITEGIC>MOL_PROPERTY
Angle
SciTegic.value.DoubleValue
1.368

@<SCITEGIC>MOL_PROPERTY
Pdih
SciTegic.value.DoubleValue
2.231

@<SCITEGIC>MOL_PROPERTY
Idih
SciTegic.value.DoubleValue
0.000

@<SCITEGIC>MOL_PROPERTY
Tether
SciTegic.value.DoubleValue
0.000

@<TRIPOS>MOLECULE
guest-s11_confgen4.mol2 : confsearch ligand conformer 94
          20          19           1
SMALL
USER_CHARGES
 
@<TRIPOS>ATOM
       1    N1      19.375149   20.204713   20.545430 N.4        1 MOL1        -0.5919
       2    H1      20.036211   20.470874   19.809056 H          1 MOL1         0.3682
       3    H2      18.435883   20.264507   20.138553 H          1 MOL1         0.3682
       4    H3      19.430782   20.920607   21.275559 H          1 MOL1         0.3682
       5    C1      19.665311   18.819749   21.090808 C.3        1 MOL1         0.0252
       6    H4      19.545367   18.110751   20.267121 H          1 MOL1         0.0971
       7    H5      18.909845   18.589896   21.843773 H          1 MOL1         0.0971
       8    C2      21.081267   18.668128   21.686463 C.3        1 MOL1        -0.1369
       9    H6      21.259116   17.614139   21.937653 H          1 MOL1         0.0997
      10    H7      21.808784   18.916815   20.902440 H          1 MOL1         0.0997
      11    C3      21.361258   19.554070   22.930263 C.3        1 MOL1        -0.1329
      12    H8      20.948270   20.561205   22.789407 H          1 MOL1         0.0997
      13    H9      22.448665   19.692259   23.006895 H          1 MOL1         0.0997
      14    C4      20.873328   18.965404   24.279129 C.3        1 MOL1        -0.1305
      15    H10     21.364217   17.999127   24.461112 H          1 MOL1         0.0997
      16    H11     21.208182   19.631489   25.086688 H          1 MOL1         0.0997
      17    C5      19.342347   18.792553   24.389345 C.3        1 MOL1        -0.2320
      18    H12     18.986749   17.969484   23.758346 H          1 MOL1         0.1008
      19    H13     19.058572   18.553208   25.422357 H          1 MOL1         0.1008
      20    H14     18.815225   19.711268   24.101482 H          1 MOL1         0.1008
@<TRIPOS>BOND
    1     1     2    1
    2     1     3    1
    3     1     4    1
    4     1     5    1
    5     5     6    1
    6     5     7    1
    7     5     8    1
    8     8     9    1
    9     8    10    1
   10     8    11    1
   11    11    12    1
   12    11    13    1
   13    11    14    1
   14    14    15    1
   15    14    16    1
   16    14    17    1
   17    17    18    1
   18    17    19    1
   19    17    20    1
@<TRIPOS>SUBSTRUCTURE
       1 MOL1            1 RESIDUE      1      MOL     
@<SCITEGIC>MOL_PROPERTY
VConf Rank
SciTegic.value.IntegerValue
94

@<SCITEGIC>MOL_PROPERTY
Conf_Id
SciTegic.value.IntegerValue
65

@<SCITEGIC>MOL_PROPERTY
Delta U+W
SciTegic.value.DoubleValue
2.949

@<SCITEGIC>MOL_PROPERTY
U+W
SciTegic.value.DoubleValue
-8.829

@<SCITEGIC>MOL_PROPERTY
Grad RMS
SciTegic.value.DoubleValue
0.000000

@<SCITEGIC>MOL_PROPERTY
U
SciTegic.value.DoubleValue
49.435

@<SCITEGIC>MOL_PROPERTY
W
SciTegic.value.DoubleValue
-58.263

@<SCITEGIC>MOL_PROPERTY
W(PB)
SciTegic.value.DoubleValue
-60.125

@<SCITEGIC>MOL_PROPERTY
W(SA)
SciTegic.value.DoubleValue
1.862

@<SCITEGIC>MOL_PROPERTY
Valence
SciTegic.value.DoubleValue
3.797

@<SCITEGIC>MOL_PROPERTY
Coulomb
SciTegic.value.DoubleValue
45.253

@<SCITEGIC>MOL_PROPERTY
VdW
SciTegic.value.DoubleValue
0.384

@<SCITEGIC>MOL_PROPERTY
VdW6
SciTegic.value.DoubleValue
-5.596

@<SCITEGIC>MOL_PROPERTY
VdW12
SciTegic.value.DoubleValue
5.980

@<SCITEGIC>MOL_PROPERTY
Bond
SciTegic.value.DoubleValue
0.198

@<SCITEGIC>MOL_PROPERTY
Angle
SciTegic.value.DoubleValue
1.369

@<SCITEGIC>MOL_PROPERTY
Pdih
SciTegic.value.DoubleValue
2.230

@<SCITEGIC>MOL_PROPERTY
Idih
SciTegic.value.DoubleValue
0.000

@<SCITEGIC>MOL_PROPERTY
Tether
SciTegic.value.DoubleValue
0.000

@<TRIPOS>MOLECULE
guest-s11_confgen4.mol2 : confsearch ligand conformer 95
          20          19           1
SMALL
USER_CHARGES
 
@<TRIPOS>ATOM
       1    N1      19.648494   18.709474   24.300468 N.4        1 MOL1        -0.5919
       2    H1      18.823808   18.378023   24.812049 H          1 MOL1         0.3682
       3    H2      19.859084   18.015261   23.576973 H          1 MOL1         0.3682
       4    H3      20.430806   18.706927   24.962576 H          1 MOL1         0.3682
       5    C1      19.424463   20.083712   23.699775 C.3        1 MOL1         0.0252
       6    H4      19.209016   20.763390   24.528714 H          1 MOL1         0.0971
       7    H5      18.542492   20.045101   23.054919 H          1 MOL1         0.0971
       8    C2      20.630780   20.624741   22.905737 C.3        1 MOL1        -0.1369
       9    H6      20.548993   21.719473   22.879599 H          1 MOL1         0.0997
      10    H7      21.560485   20.408060   23.448422 H          1 MOL1         0.0997
      11    C3      20.736781   20.123020   21.440506 C.3        1 MOL1        -0.1329
      12    H8      21.600161   20.625905   20.983115 H          1 MOL1         0.0997
      13    H9      19.863114   20.459639   20.865303 H          1 MOL1         0.0997
      14    C4      20.927670   18.594086   21.271859 C.3        1 MOL1        -0.1305
      15    H10     21.588520   18.416760   20.411574 H          1 MOL1         0.0997
      16    H11     21.454197   18.174417   22.139563 H          1 MOL1         0.0997
      17    C5      19.601315   17.841128   21.011757 C.3        1 MOL1        -0.2320
      18    H12     18.855503   18.023009   21.792961 H          1 MOL1         0.1008
      19    H13     19.160095   18.155325   20.056808 H          1 MOL1         0.1008
      20    H14     19.775647   16.758768   20.954427 H          1 MOL1         0.1008
@<TRIPOS>BOND
    1     1     2    1
    2     1     3    1
    3     1     4    1
    4     1     5    1
    5     5     6    1
    6     5     7    1
    7     5     8    1
    8     8     9    1
    9     8    10    1
   10     8    11    1
   11    11    12    1
   12    11    13    1
   13    11    14    1
   14    14    15    1
   15    14    16    1
   16    14    17    1
   17    17    18    1
   18    17    19    1
   19    17    20    1
@<TRIPOS>SUBSTRUCTURE
       1 MOL1            1 RESIDUE      1      MOL     
@<SCITEGIC>MOL_PROPERTY
VConf Rank
SciTegic.value.IntegerValue
95

@<SCITEGIC>MOL_PROPERTY
Conf_Id
SciTegic.value.IntegerValue
77

@<SCITEGIC>MOL_PROPERTY
Delta U+W
SciTegic.value.DoubleValue
5.366

@<SCITEGIC>MOL_PROPERTY
U+W
SciTegic.value.DoubleValue
-6.412

@<SCITEGIC>MOL_PROPERTY
Grad RMS
SciTegic.value.DoubleValue
0.000000

@<SCITEGIC>MOL_PROPERTY
U
SciTegic.value.DoubleValue
51.542

@<SCITEGIC>MOL_PROPERTY
W
SciTegic.value.DoubleValue
-57.954

@<SCITEGIC>MOL_PROPERTY
W(PB)
SciTegic.value.DoubleValue
-59.811

@<SCITEGIC>MOL_PROPERTY
W(SA)
SciTegic.value.DoubleValue
1.857

@<SCITEGIC>MOL_PROPERTY
Valence
SciTegic.value.DoubleValue
5.347

@<SCITEGIC>MOL_PROPERTY
Coulomb
SciTegic.value.DoubleValue
45.870

@<SCITEGIC>MOL_PROPERTY
VdW
SciTegic.value.DoubleValue
0.325

@<SCITEGIC>MOL_PROPERTY
VdW6
SciTegic.value.DoubleValue
-6.161

@<SCITEGIC>MOL_PROPERTY
VdW12
SciTegic.value.DoubleValue
6.486

@<SCITEGIC>MOL_PROPERTY
Bond
SciTegic.value.DoubleValue
0.201

@<SCITEGIC>MOL_PROPERTY
Angle
SciTegic.value.DoubleValue
1.484

@<SCITEGIC>MOL_PROPERTY
Pdih
SciTegic.value.DoubleValue
3.662

@<SCITEGIC>MOL_PROPERTY
Idih
SciTegic.value.DoubleValue
0.000

@<SCITEGIC>MOL_PROPERTY
Tether
SciTegic.value.DoubleValue
0.000

@<TRIPOS>MOLECULE
guest-s11_confgen4.mol2 : confsearch ligand conformer 96
          20          19           1
SMALL
USER_CHARGES
 
@<TRIPOS>ATOM
       1    N1      19.609219   17.887831   23.948553 N.4        1 MOL1        -0.5919
       2    H1      18.620300   17.619693   23.925153 H          1 MOL1         0.3682
       3    H2      20.050557   17.498830   23.109729 H          1 MOL1         0.3682
       4    H3      20.026255   17.418681   24.759517 H          1 MOL1         0.3682
       5    C1      19.782484   19.392762   24.017280 C.3        1 MOL1         0.0252
       6    H4      20.848275   19.619433   24.106221 H          1 MOL1         0.0971
       7    H5      19.286588   19.729956   24.931560 H          1 MOL1         0.0971
       8    C2      19.184962   20.147965   22.812687 C.3        1 MOL1        -0.1369
       9    H6      18.207947   19.719427   22.552676 H          1 MOL1         0.0997
      10    H7      18.982858   21.178906   23.132260 H          1 MOL1         0.0997
      11    C3      20.093308   20.211744   21.555427 C.3        1 MOL1        -0.1329
      12    H8      21.015686   20.762089   21.787386 H          1 MOL1         0.0997
      13    H9      19.570794   20.819399   20.803589 H          1 MOL1         0.0997
      14    C4      20.437445   18.844284   20.911889 C.3        1 MOL1        -0.1305
      15    H10     19.630780   18.120943   21.091701 H          1 MOL1         0.0997
      16    H11     20.481433   18.972119   19.821025 H          1 MOL1         0.0997
      17    C5      21.800972   18.279876   21.376710 C.3        1 MOL1        -0.2320
      18    H12     21.978072   17.288022   20.940771 H          1 MOL1         0.1008
      19    H13     22.620455   18.934234   21.051771 H          1 MOL1         0.1008
      20    H14     21.867483   18.187676   22.466054 H          1 MOL1         0.1008
@<TRIPOS>BOND
    1     1     2    1
    2     1     3    1
    3     1     4    1
    4     1     5    1
    5     5     6    1
    6     5     7    1
    7     5     8    1
    8     8     9    1
    9     8    10    1
   10     8    11    1
   11    11    12    1
   12    11    13    1
   13    11    14    1
   14    14    15    1
   15    14    16    1
   16    14    17    1
   17    17    18    1
   18    17    19    1
   19    17    20    1
@<TRIPOS>SUBSTRUCTURE
       1 MOL1            1 RESIDUE      1      MOL     
@<SCITEGIC>MOL_PROPERTY
VConf Rank
SciTegic.value.IntegerValue
96

@<SCITEGIC>MOL_PROPERTY
Conf_Id
SciTegic.value.IntegerValue
67

@<SCITEGIC>MOL_PROPERTY
Delta U+W
SciTegic.value.DoubleValue
5.353

@<SCITEGIC>MOL_PROPERTY
U+W
SciTegic.value.DoubleValue
-6.425

@<SCITEGIC>MOL_PROPERTY
Grad RMS
SciTegic.value.DoubleValue
0.000000

@<SCITEGIC>MOL_PROPERTY
U
SciTegic.value.DoubleValue
51.541

@<SCITEGIC>MOL_PROPERTY
W
SciTegic.value.DoubleValue
-57.966

@<SCITEGIC>MOL_PROPERTY
W(PB)
SciTegic.value.DoubleValue
-59.821

@<SCITEGIC>MOL_PROPERTY
W(SA)
SciTegic.value.DoubleValue
1.855

@<SCITEGIC>MOL_PROPERTY
Valence
SciTegic.value.DoubleValue
5.347

@<SCITEGIC>MOL_PROPERTY
Coulomb
SciTegic.value.DoubleValue
45.870

@<SCITEGIC>MOL_PROPERTY
VdW
SciTegic.value.DoubleValue
0.325

@<SCITEGIC>MOL_PROPERTY
VdW6
SciTegic.value.DoubleValue
-6.161

@<SCITEGIC>MOL_PROPERTY
VdW12
SciTegic.value.DoubleValue
6.486

@<SCITEGIC>MOL_PROPERTY
Bond
SciTegic.value.DoubleValue
0.201

@<SCITEGIC>MOL_PROPERTY
Angle
SciTegic.value.DoubleValue
1.485

@<SCITEGIC>MOL_PROPERTY
Pdih
SciTegic.value.DoubleValue
3.662

@<SCITEGIC>MOL_PROPERTY
Idih
SciTegic.value.DoubleValue
0.000

@<SCITEGIC>MOL_PROPERTY
Tether
SciTegic.value.DoubleValue
0.000

@<TRIPOS>MOLECULE
guest-s11_confgen4.mol2 : confsearch ligand conformer 97
          20          19           1
SMALL
USER_CHARGES
 
@<TRIPOS>ATOM
       1    N1      22.735780   17.223401   22.634346 N.4        1 MOL1        -0.5919
       2    H1      22.257052   16.356532   22.898441 H          1 MOL1         0.3682
       3    H2      23.517013   16.957773   22.025481 H          1 MOL1         0.3682
       4    H3      23.144879   17.613971   23.489028 H          1 MOL1         0.3682
       5    C1      21.800242   18.203038   21.954958 C.3        1 MOL1         0.0252
       6    H4      21.426862   17.734325   21.040402 H          1 MOL1         0.0971
       7    H5      22.381214   19.086140   21.675460 H          1 MOL1         0.0971
       8    C2      20.614991   18.622675   22.842848 C.3        1 MOL1        -0.1369
       9    H6      20.043700   17.731159   23.134214 H          1 MOL1         0.0997
      10    H7      20.994753   19.078322   23.767096 H          1 MOL1         0.0997
      11    C3      19.687164   19.620053   22.114078 C.3        1 MOL1        -0.1329
      12    H8      19.313236   19.162874   21.187280 H          1 MOL1         0.0997
      13    H9      20.263120   20.508465   21.819475 H          1 MOL1         0.0997
      14    C4      18.493121   20.048473   22.996265 C.3        1 MOL1        -0.1305
      15    H10     17.912990   19.162863   23.291546 H          1 MOL1         0.0997
      16    H11     18.862723   20.508350   23.923603 H          1 MOL1         0.0997
      17    C5      17.568902   21.044802   22.264058 C.3        1 MOL1        -0.2320
      18    H12     17.155636   20.600986   21.348933 H          1 MOL1         0.1008
      19    H13     16.727681   21.336950   22.905961 H          1 MOL1         0.1008
      20    H14     18.112735   21.957034   21.986045 H          1 MOL1         0.1008
@<TRIPOS>BOND
    1     1     2    1
    2     1     3    1
    3     1     4    1
    4     1     5    1
    5     5     6    1
    6     5     7    1
    7     5     8    1
    8     8     9    1
    9     8    10    1
   10     8    11    1
   11    11    12    1
   12    11    13    1
   13    11    14    1
   14    14    15    1
   15    14    16    1
   16    14    17    1
   17    17    18    1
   18    17    19    1
   19    17    20    1
@<TRIPOS>SUBSTRUCTURE
       1 MOL1            1 RESIDUE      1      MOL     
@<SCITEGIC>MOL_PROPERTY
VConf Rank
SciTegic.value.IntegerValue
97

@<SCITEGIC>MOL_PROPERTY
Conf_Id
SciTegic.value.IntegerValue
72

@<SCITEGIC>MOL_PROPERTY
Delta U+W
SciTegic.value.DoubleValue
0.000

@<SCITEGIC>MOL_PROPERTY
U+W
SciTegic.value.DoubleValue
-11.778

@<SCITEGIC>MOL_PROPERTY
Grad RMS
SciTegic.value.DoubleValue
0.000000

@<SCITEGIC>MOL_PROPERTY
U
SciTegic.value.DoubleValue
45.772

@<SCITEGIC>MOL_PROPERTY
W
SciTegic.value.DoubleValue
-57.550

@<SCITEGIC>MOL_PROPERTY
W(PB)
SciTegic.value.DoubleValue
-59.511

@<SCITEGIC>MOL_PROPERTY
W(SA)
SciTegic.value.DoubleValue
1.961

@<SCITEGIC>MOL_PROPERTY
Valence
SciTegic.value.DoubleValue
1.299

@<SCITEGIC>MOL_PROPERTY
Coulomb
SciTegic.value.DoubleValue
44.177

@<SCITEGIC>MOL_PROPERTY
VdW
SciTegic.value.DoubleValue
0.297

@<SCITEGIC>MOL_PROPERTY
VdW6
SciTegic.value.DoubleValue
-3.490

@<SCITEGIC>MOL_PROPERTY
VdW12
SciTegic.value.DoubleValue
3.786

@<SCITEGIC>MOL_PROPERTY
Bond
SciTegic.value.DoubleValue
0.096

@<SCITEGIC>MOL_PROPERTY
Angle
SciTegic.value.DoubleValue
0.381

@<SCITEGIC>MOL_PROPERTY
Pdih
SciTegic.value.DoubleValue
0.822

@<SCITEGIC>MOL_PROPERTY
Idih
SciTegic.value.DoubleValue
0.000

@<SCITEGIC>MOL_PROPERTY
Tether
SciTegic.value.DoubleValue
0.000

@<TRIPOS>MOLECULE
guest-s11_confgen4.mol2 : confsearch ligand conformer 98
          20          19           1
SMALL
USER_CHARGES
 
@<TRIPOS>ATOM
       1    N1      17.817391   20.816456   23.545622 N.4        1 MOL1        -0.5919
       2    H1      17.512733   21.052408   22.595966 H          1 MOL1         0.3682
       3    H2      17.230769   20.039536   23.865985 H          1 MOL1         0.3682
       4    H3      17.592937   21.622422   24.138599 H          1 MOL1         0.3682
       5    C1      19.292222   20.471996   23.598502 C.3        1 MOL1         0.0252
       6    H4      19.552604   20.262533   24.639569 H          1 MOL1         0.0971
       7    H5      19.856012   21.350784   23.273881 H          1 MOL1         0.0971
       8    C2      19.663717   19.264730   22.718861 C.3        1 MOL1        -0.1369
       9    H6      19.083662   18.388640   23.037941 H          1 MOL1         0.0997
      10    H7      19.381982   19.478832   21.680183 H          1 MOL1         0.0997
      11    C3      21.175465   18.948037   22.805197 C.3        1 MOL1        -0.1329
      12    H8      21.452834   18.812200   23.859880 H          1 MOL1         0.0997
      13    H9      21.755159   19.808140   22.442205 H          1 MOL1         0.0997
      14    C4      21.586636   17.678454   22.020488 C.3        1 MOL1        -0.1305
      15    H10     22.646942   17.468709   22.219730 H          1 MOL1         0.0997
      16    H11     21.026410   16.810990   22.396692 H          1 MOL1         0.0997
      17    C5      21.382759   17.806434   20.493535 C.3        1 MOL1        -0.2320
      18    H12     21.910327   18.683393   20.096509 H          1 MOL1         0.1008
      19    H13     21.772780   16.919097   19.978298 H          1 MOL1         0.1008
      20    H14     20.320689   17.897105   20.234292 H          1 MOL1         0.1008
@<TRIPOS>BOND
    1     1     2    1
    2     1     3    1
    3     1     4    1
    4     1     5    1
    5     5     6    1
    6     5     7    1
    7     5     8    1
    8     8     9    1
    9     8    10    1
   10     8    11    1
   11    11    12    1
   12    11    13    1
   13    11    14    1
   14    14    15    1
   15    14    16    1
   16    14    17    1
   17    17    18    1
   18    17    19    1
   19    17    20    1
@<TRIPOS>SUBSTRUCTURE
       1 MOL1            1 RESIDUE      1      MOL     
@<SCITEGIC>MOL_PROPERTY
VConf Rank
SciTegic.value.IntegerValue
98

@<SCITEGIC>MOL_PROPERTY
Conf_Id
SciTegic.value.IntegerValue
42

@<SCITEGIC>MOL_PROPERTY
Delta U+W
SciTegic.value.DoubleValue
0.508

@<SCITEGIC>MOL_PROPERTY
U+W
SciTegic.value.DoubleValue
-11.270

@<SCITEGIC>MOL_PROPERTY
Grad RMS
SciTegic.value.DoubleValue
0.000000

@<SCITEGIC>MOL_PROPERTY
U
SciTegic.value.DoubleValue
46.486

@<SCITEGIC>MOL_PROPERTY
W
SciTegic.value.DoubleValue
-57.756

@<SCITEGIC>MOL_PROPERTY
W(PB)
SciTegic.value.DoubleValue
-59.705

@<SCITEGIC>MOL_PROPERTY
W(SA)
SciTegic.value.DoubleValue
1.949

@<SCITEGIC>MOL_PROPERTY
Valence
SciTegic.value.DoubleValue
1.806

@<SCITEGIC>MOL_PROPERTY
Coulomb
SciTegic.value.DoubleValue
44.248

@<SCITEGIC>MOL_PROPERTY
VdW
SciTegic.value.DoubleValue
0.433

@<SCITEGIC>MOL_PROPERTY
VdW6
SciTegic.value.DoubleValue
-4.089

@<SCITEGIC>MOL_PROPERTY
VdW12
SciTegic.value.DoubleValue
4.522

@<SCITEGIC>MOL_PROPERTY
Bond
SciTegic.value.DoubleValue
0.131

@<SCITEGIC>MOL_PROPERTY
Angle
SciTegic.value.DoubleValue
0.628

@<SCITEGIC>MOL_PROPERTY
Pdih
SciTegic.value.DoubleValue
1.047

@<SCITEGIC>MOL_PROPERTY
Idih
SciTegic.value.DoubleValue
0.000

@<SCITEGIC>MOL_PROPERTY
Tether
SciTegic.value.DoubleValue
0.000

@<TRIPOS>MOLECULE
guest-s11_confgen4.mol2 : confsearch ligand conformer 99
          20          19           1
SMALL
USER_CHARGES
 
@<TRIPOS>ATOM
       1    N1      21.074477   17.844512   25.073632 N.4        1 MOL1        -0.5919
       2    H1      22.067478   18.084647   24.992090 H          1 MOL1         0.3682
       3    H2      20.626367   18.593759   25.610438 H          1 MOL1         0.3682
       4    H3      21.020142   16.995405   25.646037 H          1 MOL1         0.3682
       5    C1      20.424976   17.652110   23.718010 C.3        1 MOL1         0.0252
       6    H4      19.381161   17.370190   23.880731 H          1 MOL1         0.0971
       7    H5      20.930391   16.822317   23.216518 H          1 MOL1         0.0971
       8    C2      20.489530   18.909164   22.832054 C.3        1 MOL1        -0.1369
       9    H6      19.995402   19.739266   23.352472 H          1 MOL1         0.0997
      10    H7      21.538642   19.197898   22.684376 H          1 MOL1         0.0997
      11    C3      19.817894   18.666954   21.459693 C.3        1 MOL1        -0.1329
      12    H8      18.756292   18.423097   21.605023 H          1 MOL1         0.0997
      13    H9      20.274999   17.785729   20.988269 H          1 MOL1         0.0997
      14    C4      19.945289   19.866311   20.489135 C.3        1 MOL1        -0.1305
      15    H10     21.006454   20.098510   20.322130 H          1 MOL1         0.0997
      16    H11     19.537798   19.573477   19.511312 H          1 MOL1         0.0997
      17    C5      19.206520   21.133415   20.977194 C.3        1 MOL1        -0.2320
      18    H12     19.657247   21.536024   21.892713 H          1 MOL1         0.1008
      19    H13     19.250747   21.921539   20.214399 H          1 MOL1         0.1008
      20    H14     18.148535   20.921089   21.178691 H          1 MOL1         0.1008
@<TRIPOS>BOND
    1     1     2    1
    2     1     3    1
    3     1     4    1
    4     1     5    1
    5     5     6    1
    6     5     7    1
    7     5     8    1
    8     8     9    1
    9     8    10    1
   10     8    11    1
   11    11    12    1
   12    11    13    1
   13    11    14    1
   14    14    15    1
   15    14    16    1
   16    14    17    1
   17    17    18    1
   18    17    19    1
   19    17    20    1
@<TRIPOS>SUBSTRUCTURE
       1 MOL1            1 RESIDUE      1      MOL     
@<SCITEGIC>MOL_PROPERTY
VConf Rank
SciTegic.value.IntegerValue
99

@<SCITEGIC>MOL_PROPERTY
Conf_Id
SciTegic.value.IntegerValue
41

@<SCITEGIC>MOL_PROPERTY
Delta U+W
SciTegic.value.DoubleValue
0.515

@<SCITEGIC>MOL_PROPERTY
U+W
SciTegic.value.DoubleValue
-11.263

@<SCITEGIC>MOL_PROPERTY
Grad RMS
SciTegic.value.DoubleValue
0.000000

@<SCITEGIC>MOL_PROPERTY
U
SciTegic.value.DoubleValue
46.486

@<SCITEGIC>MOL_PROPERTY
W
SciTegic.value.DoubleValue
-57.749

@<SCITEGIC>MOL_PROPERTY
W(PB)
SciTegic.value.DoubleValue
-59.685

@<SCITEGIC>MOL_PROPERTY
W(SA)
SciTegic.value.DoubleValue
1.936

@<SCITEGIC>MOL_PROPERTY
Valence
SciTegic.value.DoubleValue
1.806

@<SCITEGIC>MOL_PROPERTY
Coulomb
SciTegic.value.DoubleValue
44.248

@<SCITEGIC>MOL_PROPERTY
VdW
SciTegic.value.DoubleValue
0.433

@<SCITEGIC>MOL_PROPERTY
VdW6
SciTegic.value.DoubleValue
-4.089

@<SCITEGIC>MOL_PROPERTY
VdW12
SciTegic.value.DoubleValue
4.522

@<SCITEGIC>MOL_PROPERTY
Bond
SciTegic.value.DoubleValue
0.131

@<SCITEGIC>MOL_PROPERTY
Angle
SciTegic.value.DoubleValue
0.628

@<SCITEGIC>MOL_PROPERTY
Pdih
SciTegic.value.DoubleValue
1.047

@<SCITEGIC>MOL_PROPERTY
Idih
SciTegic.value.DoubleValue
0.000

@<SCITEGIC>MOL_PROPERTY
Tether
SciTegic.value.DoubleValue
0.000

@<TRIPOS>MOLECULE
guest-s11_confgen4.mol2 : confsearch ligand conformer 100
          20          19           1
SMALL
USER_CHARGES
 
@<TRIPOS>ATOM
       1    N1      20.878230   21.677335   21.679257 N.4        1 MOL1        -0.5919
       2    H1      21.279852   22.332248   21.000074 H          1 MOL1         0.3682
       3    H2      19.864508   21.681015   21.533329 H          1 MOL1         0.3682
       4    H3      21.051737   22.069909   22.609835 H          1 MOL1         0.3682
       5    C1      21.465141   20.286382   21.534521 C.3        1 MOL1         0.0252
       6    H4      22.548217   20.370190   21.659108 H          1 MOL1         0.0971
       7    H5      21.266225   19.937478   20.517594 H          1 MOL1         0.0971
       8    C2      20.913192   19.266592   22.550027 C.3        1 MOL1        -0.1369
       9    H6      21.482724   18.335603   22.438218 H          1 MOL1         0.0997
      10    H7      21.098897   19.628054   23.570099 H          1 MOL1         0.0997
      11    C3      19.402561   18.983274   22.352944 C.3        1 MOL1        -0.1329
      12    H8      19.227506   18.600496   21.337905 H          1 MOL1         0.0997
      13    H9      18.841241   19.923845   22.429452 H          1 MOL1         0.0997
      14    C4      18.821745   17.988679   23.387553 C.3        1 MOL1        -0.1305
      15    H10     18.982230   18.373707   24.404343 H          1 MOL1         0.0997
      16    H11     17.732854   17.932758   23.249246 H          1 MOL1         0.0997
      17    C5      19.410719   16.564089   23.271731 C.3        1 MOL1        -0.2320
      18    H12     20.477913   16.546074   23.524795 H          1 MOL1         0.1008
      19    H13     18.898080   15.879703   23.960037 H          1 MOL1         0.1008
      20    H14     19.290959   16.168316   22.254861 H          1 MOL1         0.1008
@<TRIPOS>BOND
    1     1     2    1
    2     1     3    1
    3     1     4    1
    4     1     5    1
    5     5     6    1
    6     5     7    1
    7     5     8    1
    8     8     9    1
    9     8    10    1
   10     8    11    1
   11    11    12    1
   12    11    13    1
   13    11    14    1
   14    14    15    1
   15    14    16    1
   16    14    17    1
   17    17    18    1
   18    17    19    1
   19    17    20    1
@<TRIPOS>SUBSTRUCTURE
       1 MOL1            1 RESIDUE      1      MOL     
@<SCITEGIC>MOL_PROPERTY
VConf Rank
SciTegic.value.IntegerValue
100

@<SCITEGIC>MOL_PROPERTY
Conf_Id
SciTegic.value.IntegerValue
33

@<SCITEGIC>MOL_PROPERTY
Delta U+W
SciTegic.value.DoubleValue
0.703

@<SCITEGIC>MOL_PROPERTY
U+W
SciTegic.value.DoubleValue
-11.075

@<SCITEGIC>MOL_PROPERTY
Grad RMS
SciTegic.value.DoubleValue
0.000000

@<SCITEGIC>MOL_PROPERTY
U
SciTegic.value.DoubleValue
47.080

@<SCITEGIC>MOL_PROPERTY
W
SciTegic.value.DoubleValue
-58.154

@<SCITEGIC>MOL_PROPERTY
W(PB)
SciTegic.value.DoubleValue
-60.053

@<SCITEGIC>MOL_PROPERTY
W(SA)
SciTegic.value.DoubleValue
1.899

@<SCITEGIC>MOL_PROPERTY
Valence
SciTegic.value.DoubleValue
1.943

@<SCITEGIC>MOL_PROPERTY
Coulomb
SciTegic.value.DoubleValue
44.572

@<SCITEGIC>MOL_PROPERTY
VdW
SciTegic.value.DoubleValue
0.565

@<SCITEGIC>MOL_PROPERTY
VdW6
SciTegic.value.DoubleValue
-4.575

@<SCITEGIC>MOL_PROPERTY
VdW12
SciTegic.value.DoubleValue
5.139

@<SCITEGIC>MOL_PROPERTY
Bond
SciTegic.value.DoubleValue
0.158

@<SCITEGIC>MOL_PROPERTY
Angle
SciTegic.value.DoubleValue
0.700

@<SCITEGIC>MOL_PROPERTY
Pdih
SciTegic.value.DoubleValue
1.085

@<SCITEGIC>MOL_PROPERTY
Idih
SciTegic.value.DoubleValue
0.000

@<SCITEGIC>MOL_PROPERTY
Tether
SciTegic.value.DoubleValue
0.000

@<TRIPOS>MOLECULE
guest-s11_confgen4.mol2 : confsearch ligand conformer 101
          20          19           1
SMALL
USER_CHARGES
 
@<TRIPOS>ATOM
       1    N1      20.540050   18.891550   25.191605 N.4        1 MOL1        -0.5919
       2    H1      20.231645   19.016238   26.161573 H          1 MOL1         0.3682
       3    H2      21.159082   18.074956   25.178701 H          1 MOL1         0.3682
       4    H3      21.110732   19.707854   24.953048 H          1 MOL1         0.3682
       5    C1      19.366705   18.725966   24.245030 C.3        1 MOL1         0.0252
       6    H4      18.737336   19.616480   24.324549 H          1 MOL1         0.0971
       7    H5      18.784164   17.866580   24.588107 H          1 MOL1         0.0971
       8    C2      19.775787   18.509571   22.774762 C.3        1 MOL1        -0.1369
       9    H6      20.421857   17.624819   22.700601 H          1 MOL1         0.0997
      10    H7      18.868329   18.284766   22.200662 H          1 MOL1         0.0997
      11    C3      20.489687   19.742077   22.164523 C.3        1 MOL1        -0.1329
      12    H8      21.376820   19.984726   22.764295 H          1 MOL1         0.0997
      13    H9      19.828778   20.618086   22.221753 H          1 MOL1         0.0997
      14    C4      20.940863   19.530088   20.698754 C.3        1 MOL1        -0.1305
      15    H10     21.533716   20.400228   20.383599 H          1 MOL1         0.0997
      16    H11     21.613270   18.662862   20.638299 H          1 MOL1         0.0997
      17    C5      19.765182   19.346613   19.711903 C.3        1 MOL1        -0.2320
      18    H12     19.060979   20.186287   19.775544 H          1 MOL1         0.1008
      19    H13     20.134845   19.297014   18.679509 H          1 MOL1         0.1008
      20    H14     19.213627   18.418975   19.908236 H          1 MOL1         0.1008
@<TRIPOS>BOND
    1     1     2    1
    2     1     3    1
    3     1     4    1
    4     1     5    1
    5     5     6    1
    6     5     7    1
    7     5     8    1
    8     8     9    1
    9     8    10    1
   10     8    11    1
   11    11    12    1
   12    11    13    1
   13    11    14    1
   14    14    15    1
   15    14    16    1
   16    14    17    1
   17    17    18    1
   18    17    19    1
   19    17    20    1
@<TRIPOS>SUBSTRUCTURE
       1 MOL1            1 RESIDUE      1      MOL     
@<SCITEGIC>MOL_PROPERTY
VConf Rank
SciTegic.value.IntegerValue
101

@<SCITEGIC>MOL_PROPERTY
Conf_Id
SciTegic.value.IntegerValue
24

@<SCITEGIC>MOL_PROPERTY
Delta U+W
SciTegic.value.DoubleValue
0.847

@<SCITEGIC>MOL_PROPERTY
U+W
SciTegic.value.DoubleValue
-10.931

@<SCITEGIC>MOL_PROPERTY
Grad RMS
SciTegic.value.DoubleValue
0.000000

@<SCITEGIC>MOL_PROPERTY
U
SciTegic.value.DoubleValue
47.080

@<SCITEGIC>MOL_PROPERTY
W
SciTegic.value.DoubleValue
-58.011

@<SCITEGIC>MOL_PROPERTY
W(PB)
SciTegic.value.DoubleValue
-59.914

@<SCITEGIC>MOL_PROPERTY
W(SA)
SciTegic.value.DoubleValue
1.903

@<SCITEGIC>MOL_PROPERTY
Valence
SciTegic.value.DoubleValue
1.943

@<SCITEGIC>MOL_PROPERTY
Coulomb
SciTegic.value.DoubleValue
44.572

@<SCITEGIC>MOL_PROPERTY
VdW
SciTegic.value.DoubleValue
0.565

@<SCITEGIC>MOL_PROPERTY
VdW6
SciTegic.value.DoubleValue
-4.575

@<SCITEGIC>MOL_PROPERTY
VdW12
SciTegic.value.DoubleValue
5.140

@<SCITEGIC>MOL_PROPERTY
Bond
SciTegic.value.DoubleValue
0.158

@<SCITEGIC>MOL_PROPERTY
Angle
SciTegic.value.DoubleValue
0.700

@<SCITEGIC>MOL_PROPERTY
Pdih
SciTegic.value.DoubleValue
1.085

@<SCITEGIC>MOL_PROPERTY
Idih
SciTegic.value.DoubleValue
0.000

@<SCITEGIC>MOL_PROPERTY
Tether
SciTegic.value.DoubleValue
0.000

@<TRIPOS>MOLECULE
guest-s11_confgen4.mol2 : confsearch ligand conformer 102
          20          19           1
SMALL
USER_CHARGES
 
@<TRIPOS>ATOM
       1    N1      22.195612   18.555614   20.799035 N.4        1 MOL1        -0.5919
       2    H1      22.609209   17.628229   20.656262 H          1 MOL1         0.3682
       3    H2      21.617953   18.753462   19.976000 H          1 MOL1         0.3682
       4    H3      22.968018   19.229166   20.793914 H          1 MOL1         0.3682
       5    C1      21.394099   18.623151   22.083302 C.3        1 MOL1         0.0252
       6    H4      22.062156   18.374233   22.912228 H          1 MOL1         0.0971
       7    H5      20.611785   17.861399   22.031325 H          1 MOL1         0.0971
       8    C2      20.757921   20.004501   22.327794 C.3        1 MOL1        -0.1369
       9    H6      21.547964   20.767070   22.336722 H          1 MOL1         0.0997
      10    H7      20.094109   20.259382   21.491825 H          1 MOL1         0.0997
      11    C3      19.978447   20.077357   23.664622 C.3        1 MOL1        -0.1329
      12    H8      19.563271   21.088058   23.780273 H          1 MOL1         0.0997
      13    H9      20.683959   19.943793   24.496431 H          1 MOL1         0.0997
      14    C4      18.835291   19.040248   23.808926 C.3        1 MOL1        -0.1305
      15    H10     19.244474   18.020788   23.801943 H          1 MOL1         0.0997
      16    H11     18.367248   19.169885   24.794832 H          1 MOL1         0.0997
      17    C5      17.746163   19.170647   22.719979 C.3        1 MOL1        -0.2320
      18    H12     16.917446   18.479288   22.920364 H          1 MOL1         0.1008
      19    H13     17.335038   20.188093   22.692476 H          1 MOL1         0.1008
      20    H14     18.141119   18.931927   21.724661 H          1 MOL1         0.1008
@<TRIPOS>BOND
    1     1     2    1
    2     1     3    1
    3     1     4    1
    4     1     5    1
    5     5     6    1
    6     5     7    1
    7     5     8    1
    8     8     9    1
    9     8    10    1
   10     8    11    1
   11    11    12    1
   12    11    13    1
   13    11    14    1
   14    14    15    1
   15    14    16    1
   16    14    17    1
   17    17    18    1
   18    17    19    1
   19    17    20    1
@<TRIPOS>SUBSTRUCTURE
       1 MOL1            1 RESIDUE      1      MOL     
@<SCITEGIC>MOL_PROPERTY
VConf Rank
SciTegic.value.IntegerValue
102

@<SCITEGIC>MOL_PROPERTY
Conf_Id
SciTegic.value.IntegerValue
64

@<SCITEGIC>MOL_PROPERTY
Delta U+W
SciTegic.value.DoubleValue
0.707

@<SCITEGIC>MOL_PROPERTY
U+W
SciTegic.value.DoubleValue
-11.070

@<SCITEGIC>MOL_PROPERTY
Grad RMS
SciTegic.value.DoubleValue
0.000000

@<SCITEGIC>MOL_PROPERTY
U
SciTegic.value.DoubleValue
47.077

@<SCITEGIC>MOL_PROPERTY
W
SciTegic.value.DoubleValue
-58.148

@<SCITEGIC>MOL_PROPERTY
W(PB)
SciTegic.value.DoubleValue
-60.054

@<SCITEGIC>MOL_PROPERTY
W(SA)
SciTegic.value.DoubleValue
1.906

@<SCITEGIC>MOL_PROPERTY
Valence
SciTegic.value.DoubleValue
2.039

@<SCITEGIC>MOL_PROPERTY
Coulomb
SciTegic.value.DoubleValue
44.655

@<SCITEGIC>MOL_PROPERTY
VdW
SciTegic.value.DoubleValue
0.383

@<SCITEGIC>MOL_PROPERTY
VdW6
SciTegic.value.DoubleValue
-4.912

@<SCITEGIC>MOL_PROPERTY
VdW12
SciTegic.value.DoubleValue
5.295

@<SCITEGIC>MOL_PROPERTY
Bond
SciTegic.value.DoubleValue
0.159

@<SCITEGIC>MOL_PROPERTY
Angle
SciTegic.value.DoubleValue
0.856

@<SCITEGIC>MOL_PROPERTY
Pdih
SciTegic.value.DoubleValue
1.024

@<SCITEGIC>MOL_PROPERTY
Idih
SciTegic.value.DoubleValue
0.000

@<SCITEGIC>MOL_PROPERTY
Tether
SciTegic.value.DoubleValue
0.000

@<TRIPOS>MOLECULE
guest-s11_confgen4.mol2 : confsearch ligand conformer 103
          20          19           1
SMALL
USER_CHARGES
 
@<TRIPOS>ATOM
       1    N1      20.988671   21.284805   23.898697 N.4        1 MOL1        -0.5919
       2    H1      22.000792   21.445726   23.903572 H          1 MOL1         0.3682
       3    H2      20.588000   21.907915   23.190587 H          1 MOL1         0.3682
       4    H3      20.633397   21.599872   24.807543 H          1 MOL1         0.3682
       5    C1      20.647656   19.832325   23.633487 C.3        1 MOL1         0.0252
       6    H4      19.560010   19.730130   23.673086 H          1 MOL1         0.0971
       7    H5      21.079228   19.231318   24.438419 H          1 MOL1         0.0971
       8    C2      21.167205   19.327093   22.274285 C.3        1 MOL1        -0.1369
       9    H6      20.741734   19.935601   21.466110 H          1 MOL1         0.0997
      10    H7      22.254646   19.472647   22.229037 H          1 MOL1         0.0997
      11    C3      20.853317   17.829575   22.031573 C.3        1 MOL1        -0.1329
      12    H8      21.390752   17.227256   22.777140 H          1 MOL1         0.0997
      13    H9      21.260233   17.534110   21.054648 H          1 MOL1         0.0997
      14    C4      19.348025   17.462957   22.085521 C.3        1 MOL1        -0.1305
      15    H10     19.244867   16.381386   21.919856 H          1 MOL1         0.0997
      16    H11     18.946804   17.652942   23.090361 H          1 MOL1         0.0997
      17    C5      18.495362   18.210815   21.035434 C.3        1 MOL1        -0.2320
      18    H12     18.888729   18.053574   20.022757 H          1 MOL1         0.1008
      19    H13     17.459314   17.848591   21.052851 H          1 MOL1         0.1008
      20    H14     18.470475   19.289996   21.231357 H          1 MOL1         0.1008
@<TRIPOS>BOND
    1     1     2    1
    2     1     3    1
    3     1     4    1
    4     1     5    1
    5     5     6    1
    6     5     7    1
    7     5     8    1
    8     8     9    1
    9     8    10    1
   10     8    11    1
   11    11    12    1
   12    11    13    1
   13    11    14    1
   14    14    15    1
   15    14    16    1
   16    14    17    1
   17    17    18    1
   18    17    19    1
   19    17    20    1
@<TRIPOS>SUBSTRUCTURE
       1 MOL1            1 RESIDUE      1      MOL     
@<SCITEGIC>MOL_PROPERTY
VConf Rank
SciTegic.value.IntegerValue
103

@<SCITEGIC>MOL_PROPERTY
Conf_Id
SciTegic.value.IntegerValue
22

@<SCITEGIC>MOL_PROPERTY
Delta U+W
SciTegic.value.DoubleValue
0.731

@<SCITEGIC>MOL_PROPERTY
U+W
SciTegic.value.DoubleValue
-11.047

@<SCITEGIC>MOL_PROPERTY
Grad RMS
SciTegic.value.DoubleValue
0.000000

@<SCITEGIC>MOL_PROPERTY
U
SciTegic.value.DoubleValue
47.078

@<SCITEGIC>MOL_PROPERTY
W
SciTegic.value.DoubleValue
-58.125

@<SCITEGIC>MOL_PROPERTY
W(PB)
SciTegic.value.DoubleValue
-60.031

@<SCITEGIC>MOL_PROPERTY
W(SA)
SciTegic.value.DoubleValue
1.906

@<SCITEGIC>MOL_PROPERTY
Valence
SciTegic.value.DoubleValue
2.039

@<SCITEGIC>MOL_PROPERTY
Coulomb
SciTegic.value.DoubleValue
44.655

@<SCITEGIC>MOL_PROPERTY
VdW
SciTegic.value.DoubleValue
0.383

@<SCITEGIC>MOL_PROPERTY
VdW6
SciTegic.value.DoubleValue
-4.913

@<SCITEGIC>MOL_PROPERTY
VdW12
SciTegic.value.DoubleValue
5.296

@<SCITEGIC>MOL_PROPERTY
Bond
SciTegic.value.DoubleValue
0.159

@<SCITEGIC>MOL_PROPERTY
Angle
SciTegic.value.DoubleValue
0.856

@<SCITEGIC>MOL_PROPERTY
Pdih
SciTegic.value.DoubleValue
1.024

@<SCITEGIC>MOL_PROPERTY
Idih
SciTegic.value.DoubleValue
0.000

@<SCITEGIC>MOL_PROPERTY
Tether
SciTegic.value.DoubleValue
0.000

@<TRIPOS>MOLECULE
guest-s11_confgen4.mol2 : confsearch ligand conformer 104
          20          19           1
SMALL
USER_CHARGES
 
@<TRIPOS>ATOM
       1    N1      20.806758   17.655434   20.317394 N.4        1 MOL1        -0.5919
       2    H1      21.744736   17.321785   20.560728 H          1 MOL1         0.3682
       3    H2      20.207490   16.829066   20.226272 H          1 MOL1         0.3682
       4    H3      20.873847   18.077911   19.385458 H          1 MOL1         0.3682
       5    C1      20.270066   18.634096   21.342476 C.3        1 MOL1         0.0252
       6    H4      19.284265   18.968082   21.007741 H          1 MOL1         0.0971
       7    H5      20.941275   19.495714   21.361420 H          1 MOL1         0.0971
       8    C2      20.162415   18.031488   22.754548 C.3        1 MOL1        -0.1369
       9    H6      19.583793   17.099887   22.697627 H          1 MOL1         0.0997
      10    H7      21.163252   17.753378   23.110588 H          1 MOL1         0.0997
      11    C3      19.484488   18.967541   23.787085 C.3        1 MOL1        -0.1329
      12    H8      19.380250   18.403808   24.724576 H          1 MOL1         0.0997
      13    H9      18.460060   19.204659   23.468226 H          1 MOL1         0.0997
      14    C4      20.264182   20.271879   24.096879 C.3        1 MOL1        -0.1305
      15    H10     20.020333   20.583943   25.122187 H          1 MOL1         0.0997
      16    H11     21.346284   20.080198   24.089517 H          1 MOL1         0.0997
      17    C5      19.921074   21.447044   23.151310 C.3        1 MOL1        -0.2320
      18    H12     20.220153   21.249335   22.116739 H          1 MOL1         0.1008
      19    H13     18.843847   21.658010   23.160232 H          1 MOL1         0.1008
      20    H14     20.440039   22.359354   23.472791 H          1 MOL1         0.1008
@<TRIPOS>BOND
    1     1     2    1
    2     1     3    1
    3     1     4    1
    4     1     5    1
    5     5     6    1
    6     5     7    1
    7     5     8    1
    8     8     9    1
    9     8    10    1
   10     8    11    1
   11    11    12    1
   12    11    13    1
   13    11    14    1
   14    14    15    1
   15    14    16    1
   16    14    17    1
   17    17    18    1
   18    17    19    1
   19    17    20    1
@<TRIPOS>SUBSTRUCTURE
       1 MOL1            1 RESIDUE      1      MOL     
@<SCITEGIC>MOL_PROPERTY
VConf Rank
SciTegic.value.IntegerValue
104

@<SCITEGIC>MOL_PROPERTY
Conf_Id
SciTegic.value.IntegerValue
61

@<SCITEGIC>MOL_PROPERTY
Delta U+W
SciTegic.value.DoubleValue
2.669

@<SCITEGIC>MOL_PROPERTY
U+W
SciTegic.value.DoubleValue
-9.108

@<SCITEGIC>MOL_PROPERTY
Grad RMS
SciTegic.value.DoubleValue
0.000000

@<SCITEGIC>MOL_PROPERTY
U
SciTegic.value.DoubleValue
48.916

@<SCITEGIC>MOL_PROPERTY
W
SciTegic.value.DoubleValue
-58.025

@<SCITEGIC>MOL_PROPERTY
W(PB)
SciTegic.value.DoubleValue
-59.935

@<SCITEGIC>MOL_PROPERTY
W(SA)
SciTegic.value.DoubleValue
1.911

@<SCITEGIC>MOL_PROPERTY
Valence
SciTegic.value.DoubleValue
3.785

@<SCITEGIC>MOL_PROPERTY
Coulomb
SciTegic.value.DoubleValue
44.716

@<SCITEGIC>MOL_PROPERTY
VdW
SciTegic.value.DoubleValue
0.415

@<SCITEGIC>MOL_PROPERTY
VdW6
SciTegic.value.DoubleValue
-4.836

@<SCITEGIC>MOL_PROPERTY
VdW12
SciTegic.value.DoubleValue
5.251

@<SCITEGIC>MOL_PROPERTY
Bond
SciTegic.value.DoubleValue
0.175

@<SCITEGIC>MOL_PROPERTY
Angle
SciTegic.value.DoubleValue
1.195

@<SCITEGIC>MOL_PROPERTY
Pdih
SciTegic.value.DoubleValue
2.415

@<SCITEGIC>MOL_PROPERTY
Idih
SciTegic.value.DoubleValue
0.000

@<SCITEGIC>MOL_PROPERTY
Tether
SciTegic.value.DoubleValue
0.000

@<TRIPOS>MOLECULE
guest-s11_confgen4.mol2 : confsearch ligand conformer 105
          20          19           1
SMALL
USER_CHARGES
 
@<TRIPOS>ATOM
       1    N1      20.932488   17.084006   21.544627 N.4        1 MOL1        -0.5919
       2    H1      21.630202   16.668034   20.918684 H          1 MOL1         0.3682
       3    H2      20.311374   16.325130   21.842330 H          1 MOL1         0.3682
       4    H3      20.372148   17.730209   20.982963 H          1 MOL1         0.3682
       5    C1      21.581314   17.776785   22.727696 C.3        1 MOL1         0.0252
       6    H4      22.273915   18.534398   22.351313 H          1 MOL1         0.0971
       7    H5      22.164831   17.019696   23.258624 H          1 MOL1         0.0971
       8    C2      20.583864   18.421894   23.712787 C.3        1 MOL1        -0.1369
       9    H6      19.733631   17.748132   23.882972 H          1 MOL1         0.0997
      10    H7      21.089014   18.519374   24.682938 H          1 MOL1         0.0997
      11    C3      20.083573   19.828651   23.295039 C.3        1 MOL1        -0.1329
      12    H8      20.942557   20.505170   23.185793 H          1 MOL1         0.0997
      13    H9      19.478413   20.234229   24.117698 H          1 MOL1         0.0997
      14    C4      19.241406   19.850862   21.997899 C.3        1 MOL1        -0.1305
      15    H10     19.870366   19.592897   21.136671 H          1 MOL1         0.0997
      16    H11     18.442778   19.098165   22.057744 H          1 MOL1         0.0997
      17    C5      18.615307   21.240028   21.750440 C.3        1 MOL1        -0.2320
      18    H12     18.029471   21.241639   20.822085 H          1 MOL1         0.1008
      19    H13     17.944090   21.523561   22.571597 H          1 MOL1         0.1008
      20    H14     19.390552   22.012170   21.660650 H          1 MOL1         0.1008
@<TRIPOS>BOND
    1     1     2    1
    2     1     3    1
    3     1     4    1
    4     1     5    1
    5     5     6    1
    6     5     7    1
    7     5     8    1
    8     8     9    1
    9     8    10    1
   10     8    11    1
   11    11    12    1
   12    11    13    1
   13    11    14    1
   14    14    15    1
   15    14    16    1
   16    14    17    1
   17    17    18    1
   18    17    19    1
   19    17    20    1
@<TRIPOS>SUBSTRUCTURE
       1 MOL1            1 RESIDUE      1      MOL     
@<SCITEGIC>MOL_PROPERTY
VConf Rank
SciTegic.value.IntegerValue
105

@<SCITEGIC>MOL_PROPERTY
Conf_Id
SciTegic.value.IntegerValue
69

@<SCITEGIC>MOL_PROPERTY
Delta U+W
SciTegic.value.DoubleValue
2.811

@<SCITEGIC>MOL_PROPERTY
U+W
SciTegic.value.DoubleValue
-8.967

@<SCITEGIC>MOL_PROPERTY
Grad RMS
SciTegic.value.DoubleValue
0.000000

@<SCITEGIC>MOL_PROPERTY
U
SciTegic.value.DoubleValue
49.216

@<SCITEGIC>MOL_PROPERTY
W
SciTegic.value.DoubleValue
-58.183

@<SCITEGIC>MOL_PROPERTY
W(PB)
SciTegic.value.DoubleValue
-60.064

@<SCITEGIC>MOL_PROPERTY
W(SA)
SciTegic.value.DoubleValue
1.881

@<SCITEGIC>MOL_PROPERTY
Valence
SciTegic.value.DoubleValue
2.929

@<SCITEGIC>MOL_PROPERTY
Coulomb
SciTegic.value.DoubleValue
46.006

@<SCITEGIC>MOL_PROPERTY
VdW
SciTegic.value.DoubleValue
0.281

@<SCITEGIC>MOL_PROPERTY
VdW6
SciTegic.value.DoubleValue
-4.909

@<SCITEGIC>MOL_PROPERTY
VdW12
SciTegic.value.DoubleValue
5.190

@<SCITEGIC>MOL_PROPERTY
Bond
SciTegic.value.DoubleValue
0.156

@<SCITEGIC>MOL_PROPERTY
Angle
SciTegic.value.DoubleValue
0.974

@<SCITEGIC>MOL_PROPERTY
Pdih
SciTegic.value.DoubleValue
1.799

@<SCITEGIC>MOL_PROPERTY
Idih
SciTegic.value.DoubleValue
0.000

@<SCITEGIC>MOL_PROPERTY
Tether
SciTegic.value.DoubleValue
0.000

@<TRIPOS>MOLECULE
guest-s11_confgen4.mol2 : confsearch ligand conformer 106
          20          19           1
SMALL
USER_CHARGES
 
@<TRIPOS>ATOM
       1    N1      20.956346   18.417363   24.408467 N.4        1 MOL1        -0.5919
       2    H1      21.545826   18.550457   23.582738 H          1 MOL1         0.3682
       3    H2      21.103954   19.226975   25.019239 H          1 MOL1         0.3682
       4    H3      21.318710   17.598597   24.908424 H          1 MOL1         0.3682
       5    C1      19.494492   18.249287   24.040631 C.3        1 MOL1         0.0252
       6    H4      18.946473   18.101407   24.975170 H          1 MOL1         0.0971
       7    H5      19.388177   17.342194   23.439617 H          1 MOL1         0.0971
       8    C2      18.885493   19.450948   23.287897 C.3        1 MOL1        -0.1369
       9    H6      17.797393   19.418265   23.432263 H          1 MOL1         0.0997
      10    H7      19.221268   20.391129   23.745204 H          1 MOL1         0.0997
      11    C3      19.161403   19.463162   21.762284 C.3        1 MOL1        -0.1329
      12    H8      18.588845   20.289256   21.318185 H          1 MOL1         0.0997
      13    H9      18.767233   18.541771   21.311579 H          1 MOL1         0.0997
      14    C4      20.651441   19.627139   21.381219 C.3        1 MOL1        -0.1305
      15    H10     21.081243   20.486797   21.914325 H          1 MOL1         0.0997
      16    H11     21.217383   18.737529   21.684793 H          1 MOL1         0.0997
      17    C5      20.830559   19.828296   19.861196 C.3        1 MOL1        -0.2320
      18    H12     20.311931   20.732942   19.517884 H          1 MOL1         0.1008
      19    H13     21.893152   19.933267   19.606383 H          1 MOL1         0.1008
      20    H14     20.432749   18.972603   19.300120 H          1 MOL1         0.1008
@<TRIPOS>BOND
    1     1     2    1
    2     1     3    1
    3     1     4    1
    4     1     5    1
    5     5     6    1
    6     5     7    1
    7     5     8    1
    8     8     9    1
    9     8    10    1
   10     8    11    1
   11    11    12    1
   12    11    13    1
   13    11    14    1
   14    14    15    1
   15    14    16    1
   16    14    17    1
   17    17    18    1
   18    17    19    1
   19    17    20    1
@<TRIPOS>SUBSTRUCTURE
       1 MOL1            1 RESIDUE      1      MOL     
@<SCITEGIC>MOL_PROPERTY
VConf Rank
SciTegic.value.IntegerValue
106

@<SCITEGIC>MOL_PROPERTY
Conf_Id
SciTegic.value.IntegerValue
26

@<SCITEGIC>MOL_PROPERTY
Delta U+W
SciTegic.value.DoubleValue
2.809

@<SCITEGIC>MOL_PROPERTY
U+W
SciTegic.value.DoubleValue
-8.969

@<SCITEGIC>MOL_PROPERTY
Grad RMS
SciTegic.value.DoubleValue
0.000000

@<SCITEGIC>MOL_PROPERTY
U
SciTegic.value.DoubleValue
49.216

@<SCITEGIC>MOL_PROPERTY
W
SciTegic.value.DoubleValue
-58.185

@<SCITEGIC>MOL_PROPERTY
W(PB)
SciTegic.value.DoubleValue
-60.088

@<SCITEGIC>MOL_PROPERTY
W(SA)
SciTegic.value.DoubleValue
1.903

@<SCITEGIC>MOL_PROPERTY
Valence
SciTegic.value.DoubleValue
2.929

@<SCITEGIC>MOL_PROPERTY
Coulomb
SciTegic.value.DoubleValue
46.006

@<SCITEGIC>MOL_PROPERTY
VdW
SciTegic.value.DoubleValue
0.281

@<SCITEGIC>MOL_PROPERTY
VdW6
SciTegic.value.DoubleValue
-4.909

@<SCITEGIC>MOL_PROPERTY
VdW12
SciTegic.value.DoubleValue
5.190

@<SCITEGIC>MOL_PROPERTY
Bond
SciTegic.value.DoubleValue
0.156

@<SCITEGIC>MOL_PROPERTY
Angle
SciTegic.value.DoubleValue
0.974

@<SCITEGIC>MOL_PROPERTY
Pdih
SciTegic.value.DoubleValue
1.799

@<SCITEGIC>MOL_PROPERTY
Idih
SciTegic.value.DoubleValue
0.000

@<SCITEGIC>MOL_PROPERTY
Tether
SciTegic.value.DoubleValue
0.000

@<TRIPOS>MOLECULE
guest-s11_confgen4.mol2 : confsearch ligand conformer 107
          20          19           1
SMALL
USER_CHARGES
 
@<TRIPOS>ATOM
       1    N1      19.697313   19.282913   20.084822 N.4        1 MOL1        -0.5919
       2    H1      19.304658   20.132081   20.501565 H          1 MOL1         0.3682
       3    H2      20.472384   19.572745   19.480422 H          1 MOL1         0.3682
       4    H3      18.975338   18.885901   19.474541 H          1 MOL1         0.3682
       5    C1      20.146860   18.294657   21.143244 C.3        1 MOL1         0.0252
       6    H4      20.523559   17.405613   20.630205 H          1 MOL1         0.0971
       7    H5      19.271511   18.002447   21.729169 H          1 MOL1         0.0971
       8    C2      21.239855   18.845802   22.081271 C.3        1 MOL1        -0.1369
       9    H6      21.558606   18.045728   22.761572 H          1 MOL1         0.0997
      10    H7      22.126295   19.104302   21.487100 H          1 MOL1         0.0997
      11    C3      20.798304   20.084350   22.904695 C.3        1 MOL1        -0.1329
      12    H8      20.637213   20.933069   22.226511 H          1 MOL1         0.0997
      13    H9      21.624997   20.383809   23.563559 H          1 MOL1         0.0997
      14    C4      19.522151   19.875591   23.759612 C.3        1 MOL1        -0.1305
      15    H10     19.290680   20.815809   24.279480 H          1 MOL1         0.0997
      16    H11     18.659620   19.669336   23.111540 H          1 MOL1         0.0997
      17    C5      19.664328   18.749164   24.808321 C.3        1 MOL1        -0.2320
      18    H12     20.530709   18.923107   25.459544 H          1 MOL1         0.1008
      19    H13     18.770969   18.700872   25.444294 H          1 MOL1         0.1008
      20    H14     19.783520   17.768099   24.331974 H          1 MOL1         0.1008
@<TRIPOS>BOND
    1     1     2    1
    2     1     3    1
    3     1     4    1
    4     1     5    1
    5     5     6    1
    6     5     7    1
    7     5     8    1
    8     8     9    1
    9     8    10    1
   10     8    11    1
   11    11    12    1
   12    11    13    1
   13    11    14    1
   14    14    15    1
   15    14    16    1
   16    14    17    1
   17    17    18    1
   18    17    19    1
   19    17    20    1
@<TRIPOS>SUBSTRUCTURE
       1 MOL1            1 RESIDUE      1      MOL     
@<SCITEGIC>MOL_PROPERTY
VConf Rank
SciTegic.value.IntegerValue
107

@<SCITEGIC>MOL_PROPERTY
Conf_Id
SciTegic.value.IntegerValue
2

@<SCITEGIC>MOL_PROPERTY
Delta U+W
SciTegic.value.DoubleValue
0.994

@<SCITEGIC>MOL_PROPERTY
U+W
SciTegic.value.DoubleValue
-10.784

@<SCITEGIC>MOL_PROPERTY
Grad RMS
SciTegic.value.DoubleValue
0.000000

@<SCITEGIC>MOL_PROPERTY
U
SciTegic.value.DoubleValue
47.562

@<SCITEGIC>MOL_PROPERTY
W
SciTegic.value.DoubleValue
-58.346

@<SCITEGIC>MOL_PROPERTY
W(PB)
SciTegic.value.DoubleValue
-60.221

@<SCITEGIC>MOL_PROPERTY
W(SA)
SciTegic.value.DoubleValue
1.875

@<SCITEGIC>MOL_PROPERTY
Valence
SciTegic.value.DoubleValue
2.149

@<SCITEGIC>MOL_PROPERTY
Coulomb
SciTegic.value.DoubleValue
45.034

@<SCITEGIC>MOL_PROPERTY
VdW
SciTegic.value.DoubleValue
0.378

@<SCITEGIC>MOL_PROPERTY
VdW6
SciTegic.value.DoubleValue
-5.599

@<SCITEGIC>MOL_PROPERTY
VdW12
SciTegic.value.DoubleValue
5.977

@<SCITEGIC>MOL_PROPERTY
Bond
SciTegic.value.DoubleValue
0.185

@<SCITEGIC>MOL_PROPERTY
Angle
SciTegic.value.DoubleValue
0.935

@<SCITEGIC>MOL_PROPERTY
Pdih
SciTegic.value.DoubleValue
1.028

@<SCITEGIC>MOL_PROPERTY
Idih
SciTegic.value.DoubleValue
0.000

@<SCITEGIC>MOL_PROPERTY
Tether
SciTegic.value.DoubleValue
0.000

@<TRIPOS>MOLECULE
guest-s11_confgen4.mol2 : confsearch ligand conformer 108
          20          19           1
SMALL
USER_CHARGES
 
@<TRIPOS>ATOM
       1    N1      20.353331   20.815681   20.784589 N.4        1 MOL1        -0.5919
       2    H1      21.294582   21.055354   20.458028 H          1 MOL1         0.3682
       3    H2      20.075064   19.956506   20.301550 H          1 MOL1         0.3682
       4    H3      19.726529   21.559482   20.460262 H          1 MOL1         0.3682
       5    C1      20.303613   20.653494   22.291314 C.3        1 MOL1         0.0252
       6    H4      19.271459   20.432594   22.575557 H          1 MOL1         0.0971
       7    H5      20.580732   21.611888   22.738746 H          1 MOL1         0.0971
       8    C2      21.237831   19.549542   22.826863 C.3        1 MOL1        -0.1369
       9    H6      22.274823   19.798430   22.565445 H          1 MOL1         0.0997
      10    H7      21.196796   19.552669   23.923603 H          1 MOL1         0.0997
      11    C3      20.904577   18.129834   22.297369 C.3        1 MOL1        -0.1329
      12    H8      21.596541   17.410085   22.756006 H          1 MOL1         0.0997
      13    H9      21.105266   18.087964   21.218399 H          1 MOL1         0.0997
      14    C4      19.448575   17.664654   22.555633 C.3        1 MOL1        -0.1305
      15    H10     18.741254   18.316086   22.024757 H          1 MOL1         0.0997
      16    H11     19.318643   16.662710   22.123110 H          1 MOL1         0.0997
      17    C5      19.079122   17.610877   24.055450 C.3        1 MOL1        -0.2320
      18    H12     19.083406   18.610542   24.507393 H          1 MOL1         0.1008
      19    H13     18.073040   17.192692   24.188896 H          1 MOL1         0.1008
      20    H14     19.782029   16.978191   24.612756 H          1 MOL1         0.1008
@<TRIPOS>BOND
    1     1     2    1
    2     1     3    1
    3     1     4    1
    4     1     5    1
    5     5     6    1
    6     5     7    1
    7     5     8    1
    8     8     9    1
    9     8    10    1
   10     8    11    1
   11    11    12    1
   12    11    13    1
   13    11    14    1
   14    14    15    1
   15    14    16    1
   16    14    17    1
   17    17    18    1
   18    17    19    1
   19    17    20    1
@<TRIPOS>SUBSTRUCTURE
       1 MOL1            1 RESIDUE      1      MOL     
@<SCITEGIC>MOL_PROPERTY
VConf Rank
SciTegic.value.IntegerValue
108

@<SCITEGIC>MOL_PROPERTY
Conf_Id
SciTegic.value.IntegerValue
1

@<SCITEGIC>MOL_PROPERTY
Delta U+W
SciTegic.value.DoubleValue
1.032

@<SCITEGIC>MOL_PROPERTY
U+W
SciTegic.value.DoubleValue
-10.746

@<SCITEGIC>MOL_PROPERTY
Grad RMS
SciTegic.value.DoubleValue
0.000000

@<SCITEGIC>MOL_PROPERTY
U
SciTegic.value.DoubleValue
47.562

@<SCITEGIC>MOL_PROPERTY
W
SciTegic.value.DoubleValue
-58.308

@<SCITEGIC>MOL_PROPERTY
W(PB)
SciTegic.value.DoubleValue
-60.184

@<SCITEGIC>MOL_PROPERTY
W(SA)
SciTegic.value.DoubleValue
1.877

@<SCITEGIC>MOL_PROPERTY
Valence
SciTegic.value.DoubleValue
2.149

@<SCITEGIC>MOL_PROPERTY
Coulomb
SciTegic.value.DoubleValue
45.035

@<SCITEGIC>MOL_PROPERTY
VdW
SciTegic.value.DoubleValue
0.378

@<SCITEGIC>MOL_PROPERTY
VdW6
SciTegic.value.DoubleValue
-5.599

@<SCITEGIC>MOL_PROPERTY
VdW12
SciTegic.value.DoubleValue
5.978

@<SCITEGIC>MOL_PROPERTY
Bond
SciTegic.value.DoubleValue
0.185

@<SCITEGIC>MOL_PROPERTY
Angle
SciTegic.value.DoubleValue
0.935

@<SCITEGIC>MOL_PROPERTY
Pdih
SciTegic.value.DoubleValue
1.028

@<SCITEGIC>MOL_PROPERTY
Idih
SciTegic.value.DoubleValue
0.000

@<SCITEGIC>MOL_PROPERTY
Tether
SciTegic.value.DoubleValue
0.000

@<TRIPOS>MOLECULE
guest-s11_confgen4.mol2 : confsearch ligand conformer 109
          20          19           1
SMALL
USER_CHARGES
 
@<TRIPOS>ATOM
       1    N1      22.088073   17.764257   22.045959 N.4        1 MOL1        -0.5919
       2    H1      23.006646   18.056123   22.393994 H          1 MOL1         0.3682
       3    H2      21.579025   17.359721   22.837100 H          1 MOL1         0.3682
       4    H3      22.250681   17.005849   21.375346 H          1 MOL1         0.3682
       5    C1      21.329673   18.917792   21.418310 C.3        1 MOL1         0.0252
       6    H4      20.380327   18.531792   21.043787 H          1 MOL1         0.0971
       7    H5      21.912363   19.266169   20.561204 H          1 MOL1         0.0971
       8    C2      21.087026   20.101025   22.379454 C.3        1 MOL1        -0.1369
       9    H6      22.062933   20.452338   22.740015 H          1 MOL1         0.0997
      10    H7      20.653547   20.940690   21.820278 H          1 MOL1         0.0997
      11    C3      20.189180   19.771188   23.602320 C.3        1 MOL1        -0.1329
      12    H8      20.419669   20.497085   24.394388 H          1 MOL1         0.0997
      13    H9      20.449346   18.790338   24.020616 H          1 MOL1         0.0997
      14    C4      18.663550   19.845626   23.335965 C.3        1 MOL1        -0.1305
      15    H10     18.139511   19.685977   24.288773 H          1 MOL1         0.0997
      16    H11     18.393449   20.859336   23.008519 H          1 MOL1         0.0997
      17    C5      18.138809   18.817447   22.309600 C.3        1 MOL1        -0.2320
      18    H12     18.488522   17.804086   22.545310 H          1 MOL1         0.1008
      19    H13     17.041227   18.801984   22.311710 H          1 MOL1         0.1008
      20    H14     18.455730   19.071938   21.291342 H          1 MOL1         0.1008
@<TRIPOS>BOND
    1     1     2    1
    2     1     3    1
    3     1     4    1
    4     1     5    1
    5     5     6    1
    6     5     7    1
    7     5     8    1
    8     8     9    1
    9     8    10    1
   10     8    11    1
   11    11    12    1
   12    11    13    1
   13    11    14    1
   14    14    15    1
   15    14    16    1
   16    14    17    1
   17    17    18    1
   18    17    19    1
   19    17    20    1
@<TRIPOS>SUBSTRUCTURE
       1 MOL1            1 RESIDUE      1      MOL     
@<SCITEGIC>MOL_PROPERTY
VConf Rank
SciTegic.value.IntegerValue
109

@<SCITEGIC>MOL_PROPERTY
Conf_Id
SciTegic.value.IntegerValue
80

@<SCITEGIC>MOL_PROPERTY
Delta U+W
SciTegic.value.DoubleValue
2.920

@<SCITEGIC>MOL_PROPERTY
U+W
SciTegic.value.DoubleValue
-8.857

@<SCITEGIC>MOL_PROPERTY
Grad RMS
SciTegic.value.DoubleValue
0.000000

@<SCITEGIC>MOL_PROPERTY
U
SciTegic.value.DoubleValue
49.434

@<SCITEGIC>MOL_PROPERTY
W
SciTegic.value.DoubleValue
-58.292

@<SCITEGIC>MOL_PROPERTY
W(PB)
SciTegic.value.DoubleValue
-60.170

@<SCITEGIC>MOL_PROPERTY
W(SA)
SciTegic.value.DoubleValue
1.879

@<SCITEGIC>MOL_PROPERTY
Valence
SciTegic.value.DoubleValue
3.798

@<SCITEGIC>MOL_PROPERTY
Coulomb
SciTegic.value.DoubleValue
45.253

@<SCITEGIC>MOL_PROPERTY
VdW
SciTegic.value.DoubleValue
0.384

@<SCITEGIC>MOL_PROPERTY
VdW6
SciTegic.value.DoubleValue
-5.595

@<SCITEGIC>MOL_PROPERTY
VdW12
SciTegic.value.DoubleValue
5.979

@<SCITEGIC>MOL_PROPERTY
Bond
SciTegic.value.DoubleValue
0.198

@<SCITEGIC>MOL_PROPERTY
Angle
SciTegic.value.DoubleValue
1.368

@<SCITEGIC>MOL_PROPERTY
Pdih
SciTegic.value.DoubleValue
2.231

@<SCITEGIC>MOL_PROPERTY
Idih
SciTegic.value.DoubleValue
0.000

@<SCITEGIC>MOL_PROPERTY
Tether
SciTegic.value.DoubleValue
0.000

@<TRIPOS>MOLECULE
guest-s11_confgen4.mol2 : confsearch ligand conformer 110
          20          19           1
SMALL
USER_CHARGES
 
@<TRIPOS>ATOM
       1    N1      18.347229   18.884445   21.097933 N.4        1 MOL1        -0.5919
       2    H1      18.028589   19.664523   20.514807 H          1 MOL1         0.3682
       3    H2      17.869489   18.043433   20.757625 H          1 MOL1         0.3682
       4    H3      18.006816   19.057823   22.048063 H          1 MOL1         0.3682
       5    C1      19.855326   18.729891   21.059017 C.3        1 MOL1         0.0252
       6    H4      20.135928   18.506396   20.026140 H          1 MOL1         0.0971
       7    H5      20.120826   17.867656   21.672676 H          1 MOL1         0.0971
       8    C2      20.623014   19.982819   21.531833 C.3        1 MOL1        -0.1369
       9    H6      21.696803   19.840801   21.351759 H          1 MOL1         0.0997
      10    H7      20.321175   20.826600   20.897210 H          1 MOL1         0.0997
      11    C3      20.390579   20.364705   23.018595 C.3        1 MOL1        -0.1329
      12    H8      19.331186   20.257720   23.284980 H          1 MOL1         0.0997
      13    H9      20.613160   21.435001   23.129716 H          1 MOL1         0.0997
      14    C4      21.273065   19.600112   24.038723 C.3        1 MOL1        -0.1305
      15    H10     22.334508   19.788554   23.825160 H          1 MOL1         0.0997
      16    H11     21.086556   20.019235   25.037471 H          1 MOL1         0.0997
      17    C5      21.022356   18.076869   24.091671 C.3        1 MOL1        -0.2320
      18    H12     21.407267   17.577198   23.194886 H          1 MOL1         0.1008
      19    H13     21.538083   17.634840   24.953973 H          1 MOL1         0.1008
      20    H14     19.952577   17.851628   24.189641 H          1 MOL1         0.1008
@<TRIPOS>BOND
    1     1     2    1
    2     1     3    1
    3     1     4    1
    4     1     5    1
    5     5     6    1
    6     5     7    1
    7     5     8    1
    8     8     9    1
    9     8    10    1
   10     8    11    1
   11    11    12    1
   12    11    13    1
   13    11    14    1
   14    14    15    1
   15    14    16    1
   16    14    17    1
   17    17    18    1
   18    17    19    1
   19    17    20    1
@<TRIPOS>SUBSTRUCTURE
       1 MOL1            1 RESIDUE      1      MOL     
@<SCITEGIC>MOL_PROPERTY
VConf Rank
SciTegic.value.IntegerValue
110

@<SCITEGIC>MOL_PROPERTY
Conf_Id
SciTegic.value.IntegerValue
65

@<SCITEGIC>MOL_PROPERTY
Delta U+W
SciTegic.value.DoubleValue
2.949

@<SCITEGIC>MOL_PROPERTY
U+W
SciTegic.value.DoubleValue
-8.829

@<SCITEGIC>MOL_PROPERTY
Grad RMS
SciTegic.value.DoubleValue
0.000000

@<SCITEGIC>MOL_PROPERTY
U
SciTegic.value.DoubleValue
49.435

@<SCITEGIC>MOL_PROPERTY
W
SciTegic.value.DoubleValue
-58.263

@<SCITEGIC>MOL_PROPERTY
W(PB)
SciTegic.value.DoubleValue
-60.125

@<SCITEGIC>MOL_PROPERTY
W(SA)
SciTegic.value.DoubleValue
1.862

@<SCITEGIC>MOL_PROPERTY
Valence
SciTegic.value.DoubleValue
3.797

@<SCITEGIC>MOL_PROPERTY
Coulomb
SciTegic.value.DoubleValue
45.253

@<SCITEGIC>MOL_PROPERTY
VdW
SciTegic.value.DoubleValue
0.384

@<SCITEGIC>MOL_PROPERTY
VdW6
SciTegic.value.DoubleValue
-5.596

@<SCITEGIC>MOL_PROPERTY
VdW12
SciTegic.value.DoubleValue
5.980

@<SCITEGIC>MOL_PROPERTY
Bond
SciTegic.value.DoubleValue
0.198

@<SCITEGIC>MOL_PROPERTY
Angle
SciTegic.value.DoubleValue
1.369

@<SCITEGIC>MOL_PROPERTY
Pdih
SciTegic.value.DoubleValue
2.230

@<SCITEGIC>MOL_PROPERTY
Idih
SciTegic.value.DoubleValue
0.000

@<SCITEGIC>MOL_PROPERTY
Tether
SciTegic.value.DoubleValue
0.000

@<TRIPOS>MOLECULE
guest-s11_confgen4.mol2 : confsearch ligand conformer 111
          20          19           1
SMALL
USER_CHARGES
 
@<TRIPOS>ATOM
       1    N1      20.535640   17.305189   22.519260 N.4        1 MOL1        -0.5919
       2    H1      21.357230   16.712740   22.679494 H          1 MOL1         0.3682
       3    H2      20.385480   17.856463   23.369715 H          1 MOL1         0.3682
       4    H3      19.731556   16.678086   22.416313 H          1 MOL1         0.3682
       5    C1      20.712105   18.197405   21.305849 C.3        1 MOL1         0.0252
       6    H4      20.864115   17.540061   20.445435 H          1 MOL1         0.0971
       7    H5      21.617099   18.796050   21.439301 H          1 MOL1         0.0971
       8    C2      19.509133   19.121305   21.027142 C.3        1 MOL1        -0.1369
       9    H6      19.537253   19.393886   19.963789 H          1 MOL1         0.0997
      10    H7      18.572792   18.565152   21.167739 H          1 MOL1         0.0997
      11    C3      19.479958   20.436041   21.852054 C.3        1 MOL1        -0.1329
      12    H8      18.609310   21.015625   21.515040 H          1 MOL1         0.0997
      13    H9      20.355549   21.052427   21.605324 H          1 MOL1         0.0997
      14    C4      19.371402   20.256833   23.387834 C.3        1 MOL1        -0.1305
      15    H10     18.750941   21.069238   23.791920 H          1 MOL1         0.0997
      16    H11     18.836119   19.328796   23.629665 H          1 MOL1         0.0997
      17    C5      20.741906   20.308173   24.104004 C.3        1 MOL1        -0.2320
      18    H12     21.449732   19.571830   23.708557 H          1 MOL1         0.1008
      19    H13     21.200362   21.299119   23.989269 H          1 MOL1         0.1008
      20    H14     20.623743   20.121798   25.179403 H          1 MOL1         0.1008
@<TRIPOS>BOND
    1     1     2    1
    2     1     3    1
    3     1     4    1
    4     1     5    1
    5     5     6    1
    6     5     7    1
    7     5     8    1
    8     8     9    1
    9     8    10    1
   10     8    11    1
   11    11    12    1
   12    11    13    1
   13    11    14    1
   14    14    15    1
   15    14    16    1
   16    14    17    1
   17    17    18    1
   18    17    19    1
   19    17    20    1
@<TRIPOS>SUBSTRUCTURE
       1 MOL1            1 RESIDUE      1      MOL     
@<SCITEGIC>MOL_PROPERTY
VConf Rank
SciTegic.value.IntegerValue
111

@<SCITEGIC>MOL_PROPERTY
Conf_Id
SciTegic.value.IntegerValue
77

@<SCITEGIC>MOL_PROPERTY
Delta U+W
SciTegic.value.DoubleValue
5.366

@<SCITEGIC>MOL_PROPERTY
U+W
SciTegic.value.DoubleValue
-6.412

@<SCITEGIC>MOL_PROPERTY
Grad RMS
SciTegic.value.DoubleValue
0.000000

@<SCITEGIC>MOL_PROPERTY
U
SciTegic.value.DoubleValue
51.542

@<SCITEGIC>MOL_PROPERTY
W
SciTegic.value.DoubleValue
-57.954

@<SCITEGIC>MOL_PROPERTY
W(PB)
SciTegic.value.DoubleValue
-59.811

@<SCITEGIC>MOL_PROPERTY
W(SA)
SciTegic.value.DoubleValue
1.857

@<SCITEGIC>MOL_PROPERTY
Valence
SciTegic.value.DoubleValue
5.347

@<SCITEGIC>MOL_PROPERTY
Coulomb
SciTegic.value.DoubleValue
45.870

@<SCITEGIC>MOL_PROPERTY
VdW
SciTegic.value.DoubleValue
0.325

@<SCITEGIC>MOL_PROPERTY
VdW6
SciTegic.value.DoubleValue
-6.161

@<SCITEGIC>MOL_PROPERTY
VdW12
SciTegic.value.DoubleValue
6.486

@<SCITEGIC>MOL_PROPERTY
Bond
SciTegic.value.DoubleValue
0.201

@<SCITEGIC>MOL_PROPERTY
Angle
SciTegic.value.DoubleValue
1.484

@<SCITEGIC>MOL_PROPERTY
Pdih
SciTegic.value.DoubleValue
3.662

@<SCITEGIC>MOL_PROPERTY
Idih
SciTegic.value.DoubleValue
0.000

@<SCITEGIC>MOL_PROPERTY
Tether
SciTegic.value.DoubleValue
0.000

@<TRIPOS>MOLECULE
guest-s11_confgen4.mol2 : confsearch ligand conformer 112
          20          19           1
SMALL
USER_CHARGES
 
@<TRIPOS>ATOM
       1    N1      20.712516   17.255470   23.148487 N.4        1 MOL1        -0.5919
       2    H1      21.703106   17.147651   23.388302 H          1 MOL1         0.3682
       3    H2      20.329415   17.985963   23.756220 H          1 MOL1         0.3682
       4    H3      20.248062   16.375611   23.397109 H          1 MOL1         0.3682
       5    C1      20.522542   17.598822   21.683706 C.3        1 MOL1         0.0252
       6    H4      19.451368   17.637177   21.468495 H          1 MOL1         0.0971
       7    H5      20.955659   16.778708   21.104618 H          1 MOL1         0.0971
       8    C2      21.190055   18.922536   21.258714 C.3        1 MOL1        -0.1369
       9    H6      22.185357   19.000589   21.715978 H          1 MOL1         0.0997
      10    H7      21.362481   18.876306   20.175227 H          1 MOL1         0.0997
      11    C3      20.364083   20.203751   21.552178 C.3        1 MOL1        -0.1329
      12    H8      19.424086   20.181725   20.983508 H          1 MOL1         0.0997
      13    H9      20.928819   21.057126   21.151742 H          1 MOL1         0.0997
      14    C4      20.073621   20.481003   23.049270 C.3        1 MOL1        -0.1305
      15    H10     20.873078   20.067820   23.678882 H          1 MOL1         0.0997
      16    H11     20.098925   21.567311   23.215265 H          1 MOL1         0.0997
      17    C5      18.687775   19.965670   23.504991 C.3        1 MOL1        -0.2320
      18    H12     18.547468   20.132751   24.580900 H          1 MOL1         0.1008
      19    H13     17.885456   20.500987   22.980546 H          1 MOL1         0.1008
      20    H14     18.552004   18.896893   23.307821 H          1 MOL1         0.1008
@<TRIPOS>BOND
    1     1     2    1
    2     1     3    1
    3     1     4    1
    4     1     5    1
    5     5     6    1
    6     5     7    1
    7     5     8    1
    8     8     9    1
    9     8    10    1
   10     8    11    1
   11    11    12    1
   12    11    13    1
   13    11    14    1
   14    14    15    1
   15    14    16    1
   16    14    17    1
   17    17    18    1
   18    17    19    1
   19    17    20    1
@<TRIPOS>SUBSTRUCTURE
       1 MOL1            1 RESIDUE      1      MOL     
@<SCITEGIC>MOL_PROPERTY
VConf Rank
SciTegic.value.IntegerValue
112

@<SCITEGIC>MOL_PROPERTY
Conf_Id
SciTegic.value.IntegerValue
67

@<SCITEGIC>MOL_PROPERTY
Delta U+W
SciTegic.value.DoubleValue
5.353

@<SCITEGIC>MOL_PROPERTY
U+W
SciTegic.value.DoubleValue
-6.425

@<SCITEGIC>MOL_PROPERTY
Grad RMS
SciTegic.value.DoubleValue
0.000000

@<SCITEGIC>MOL_PROPERTY
U
SciTegic.value.DoubleValue
51.541

@<SCITEGIC>MOL_PROPERTY
W
SciTegic.value.DoubleValue
-57.966

@<SCITEGIC>MOL_PROPERTY
W(PB)
SciTegic.value.DoubleValue
-59.821

@<SCITEGIC>MOL_PROPERTY
W(SA)
SciTegic.value.DoubleValue
1.855

@<SCITEGIC>MOL_PROPERTY
Valence
SciTegic.value.DoubleValue
5.347

@<SCITEGIC>MOL_PROPERTY
Coulomb
SciTegic.value.DoubleValue
45.870

@<SCITEGIC>MOL_PROPERTY
VdW
SciTegic.value.DoubleValue
0.325

@<SCITEGIC>MOL_PROPERTY
VdW6
SciTegic.value.DoubleValue
-6.161

@<SCITEGIC>MOL_PROPERTY
VdW12
SciTegic.value.DoubleValue
6.486

@<SCITEGIC>MOL_PROPERTY
Bond
SciTegic.value.DoubleValue
0.201

@<SCITEGIC>MOL_PROPERTY
Angle
SciTegic.value.DoubleValue
1.485

@<SCITEGIC>MOL_PROPERTY
Pdih
SciTegic.value.DoubleValue
3.662

@<SCITEGIC>MOL_PROPERTY
Idih
SciTegic.value.DoubleValue
0.000

@<SCITEGIC>MOL_PROPERTY
Tether
SciTegic.value.DoubleValue
0.000

@<TRIPOS>MOLECULE
guest-s11_confgen4.mol2 : confsearch ligand conformer 113
          20          19           1
SMALL
USER_CHARGES
 
@<TRIPOS>ATOM
       1    N1      22.078861   21.119027   20.835210 N.4        1 MOL1        -0.5919
       2    H1      22.818198   20.446776   20.607512 H          1 MOL1         0.3682
       3    H2      22.000938   21.756987   20.036126 H          1 MOL1         0.3682
       4    H3      22.412010   21.675951   21.628453 H          1 MOL1         0.3682
       5    C1      20.762296   20.432420   21.138055 C.3        1 MOL1         0.0252
       6    H4      20.453555   19.884880   20.243406 H          1 MOL1         0.0971
       7    H5      20.016959   21.206215   21.341107 H          1 MOL1         0.0971
       8    C2      20.844778   19.466451   22.333615 C.3        1 MOL1        -0.1369
       9    H6      21.605621   18.700557   22.132140 H          1 MOL1         0.0997
      10    H7      21.170531   20.017331   23.226075 H          1 MOL1         0.0997
      11    C3      19.484035   18.788520   22.608428 C.3        1 MOL1        -0.1329
      12    H8      19.158670   18.242663   21.711785 H          1 MOL1         0.0997
      13    H9      18.724111   19.557848   22.804495 H          1 MOL1         0.0997
      14    C4      19.554905   17.816033   23.807087 C.3        1 MOL1        -0.1305
      15    H10     20.312539   17.043484   23.614200 H          1 MOL1         0.0997
      16    H11     19.877943   18.358486   24.706775 H          1 MOL1         0.0997
      17    C5      18.193262   17.141054   24.077847 C.3        1 MOL1        -0.2320
      18    H12     17.859431   16.561742   23.207118 H          1 MOL1         0.1008
      19    H13     18.263677   16.454775   24.931724 H          1 MOL1         0.1008
      20    H14     17.421472   17.886987   24.308360 H          1 MOL1         0.1008
@<TRIPOS>BOND
    1     1     2    1
    2     1     3    1
    3     1     4    1
    4     1     5    1
    5     5     6    1
    6     5     7    1
    7     5     8    1
    8     8     9    1
    9     8    10    1
   10     8    11    1
   11    11    12    1
   12    11    13    1
   13    11    14    1
   14    14    15    1
   15    14    16    1
   16    14    17    1
   17    17    18    1
   18    17    19    1
   19    17    20    1
@<TRIPOS>SUBSTRUCTURE
       1 MOL1            1 RESIDUE      1      MOL     
@<SCITEGIC>MOL_PROPERTY
VConf Rank
SciTegic.value.IntegerValue
113

@<SCITEGIC>MOL_PROPERTY
Conf_Id
SciTegic.value.IntegerValue
72

@<SCITEGIC>MOL_PROPERTY
Delta U+W
SciTegic.value.DoubleValue
0.000

@<SCITEGIC>MOL_PROPERTY
U+W
SciTegic.value.DoubleValue
-11.778

@<SCITEGIC>MOL_PROPERTY
Grad RMS
SciTegic.value.DoubleValue
0.000000

@<SCITEGIC>MOL_PROPERTY
U
SciTegic.value.DoubleValue
45.772

@<SCITEGIC>MOL_PROPERTY
W
SciTegic.value.DoubleValue
-57.550

@<SCITEGIC>MOL_PROPERTY
W(PB)
SciTegic.value.DoubleValue
-59.511

@<SCITEGIC>MOL_PROPERTY
W(SA)
SciTegic.value.DoubleValue
1.961

@<SCITEGIC>MOL_PROPERTY
Valence
SciTegic.value.DoubleValue
1.299

@<SCITEGIC>MOL_PROPERTY
Coulomb
SciTegic.value.DoubleValue
44.177

@<SCITEGIC>MOL_PROPERTY
VdW
SciTegic.value.DoubleValue
0.297

@<SCITEGIC>MOL_PROPERTY
VdW6
SciTegic.value.DoubleValue
-3.490

@<SCITEGIC>MOL_PROPERTY
VdW12
SciTegic.value.DoubleValue
3.786

@<SCITEGIC>MOL_PROPERTY
Bond
SciTegic.value.DoubleValue
0.096

@<SCITEGIC>MOL_PROPERTY
Angle
SciTegic.value.DoubleValue
0.381

@<SCITEGIC>MOL_PROPERTY
Pdih
SciTegic.value.DoubleValue
0.822

@<SCITEGIC>MOL_PROPERTY
Idih
SciTegic.value.DoubleValue
0.000

@<SCITEGIC>MOL_PROPERTY
Tether
SciTegic.value.DoubleValue
0.000

@<TRIPOS>MOLECULE
guest-s11_confgen4.mol2 : confsearch ligand conformer 114
          20          19           1
SMALL
USER_CHARGES
 
@<TRIPOS>ATOM
       1    N1      19.149980   20.453425   25.031173 N.4        1 MOL1        -0.5919
       2    H1      19.870242   21.179502   24.965057 H          1 MOL1         0.3682
       3    H2      18.281394   20.856443   24.665800 H          1 MOL1         0.3682
       4    H3      18.998066   20.275561   26.029606 H          1 MOL1         0.3682
       5    C1      19.545964   19.193069   24.288694 C.3        1 MOL1         0.0252
       6    H4      18.750302   18.455989   24.427003 H          1 MOL1         0.0971
       7    H5      20.458469   18.803286   24.747942 H          1 MOL1         0.0971
       8    C2      19.781413   19.424919   22.785339 C.3        1 MOL1        -0.1369
       9    H6      18.867809   19.831227   22.331409 H          1 MOL1         0.0997
      10    H7      20.568747   20.178666   22.658696 H          1 MOL1         0.0997
      11    C3      20.180496   18.113576   22.068232 C.3        1 MOL1        -0.1329
      12    H8      19.417509   17.348878   22.270294 H          1 MOL1         0.0997
      13    H9      21.119834   17.731335   22.491459 H          1 MOL1         0.0997
      14    C4      20.328712   18.268177   20.535000 C.3        1 MOL1        -0.1305
      15    H10     20.508158   17.276568   20.096308 H          1 MOL1         0.0997
      16    H11     19.383606   18.627623   20.104362 H          1 MOL1         0.0997
      17    C5      21.480823   19.211844   20.120678 C.3        1 MOL1        -0.2320
      18    H12     22.433174   18.890187   20.561791 H          1 MOL1         0.1008
      19    H13     21.601061   19.215102   19.029585 H          1 MOL1         0.1008
      20    H14     21.288269   20.245518   20.433510 H          1 MOL1         0.1008
@<TRIPOS>BOND
    1     1     2    1
    2     1     3    1
    3     1     4    1
    4     1     5    1
    5     5     6    1
    6     5     7    1
    7     5     8    1
    8     8     9    1
    9     8    10    1
   10     8    11    1
   11    11    12    1
   12    11    13    1
   13    11    14    1
   14    14    15    1
   15    14    16    1
   16    14    17    1
   17    17    18    1
   18    17    19    1
   19    17    20    1
@<TRIPOS>SUBSTRUCTURE
       1 MOL1            1 RESIDUE      1      MOL     
@<SCITEGIC>MOL_PROPERTY
VConf Rank
SciTegic.value.IntegerValue
114

@<SCITEGIC>MOL_PROPERTY
Conf_Id
SciTegic.value.IntegerValue
42

@<SCITEGIC>MOL_PROPERTY
Delta U+W
SciTegic.value.DoubleValue
0.508

@<SCITEGIC>MOL_PROPERTY
U+W
SciTegic.value.DoubleValue
-11.270

@<SCITEGIC>MOL_PROPERTY
Grad RMS
SciTegic.value.DoubleValue
0.000000

@<SCITEGIC>MOL_PROPERTY
U
SciTegic.value.DoubleValue
46.486

@<SCITEGIC>MOL_PROPERTY
W
SciTegic.value.DoubleValue
-57.756

@<SCITEGIC>MOL_PROPERTY
W(PB)
SciTegic.value.DoubleValue
-59.705

@<SCITEGIC>MOL_PROPERTY
W(SA)
SciTegic.value.DoubleValue
1.949

@<SCITEGIC>MOL_PROPERTY
Valence
SciTegic.value.DoubleValue
1.806

@<SCITEGIC>MOL_PROPERTY
Coulomb
SciTegic.value.DoubleValue
44.248

@<SCITEGIC>MOL_PROPERTY
VdW
SciTegic.value.DoubleValue
0.433

@<SCITEGIC>MOL_PROPERTY
VdW6
SciTegic.value.DoubleValue
-4.089

@<SCITEGIC>MOL_PROPERTY
VdW12
SciTegic.value.DoubleValue
4.522

@<SCITEGIC>MOL_PROPERTY
Bond
SciTegic.value.DoubleValue
0.131

@<SCITEGIC>MOL_PROPERTY
Angle
SciTegic.value.DoubleValue
0.628

@<SCITEGIC>MOL_PROPERTY
Pdih
SciTegic.value.DoubleValue
1.047

@<SCITEGIC>MOL_PROPERTY
Idih
SciTegic.value.DoubleValue
0.000

@<SCITEGIC>MOL_PROPERTY
Tether
SciTegic.value.DoubleValue
0.000

@<TRIPOS>MOLECULE
guest-s11_confgen4.mol2 : confsearch ligand conformer 115
          20          19           1
SMALL
USER_CHARGES
 
@<TRIPOS>ATOM
       1    N1      21.559250   21.371133   23.787827 N.4        1 MOL1        -0.5919
       2    H1      22.013848   21.745354   22.948981 H          1 MOL1         0.3682
       3    H2      20.673834   21.874728   23.900808 H          1 MOL1         0.3682
       4    H3      22.150617   21.627108   24.585538 H          1 MOL1         0.3682
       5    C1      21.351579   19.872616   23.698935 C.3        1 MOL1         0.0252
       6    H4      20.892932   19.539305   24.633843 H          1 MOL1         0.0971
       7    H5      22.333891   19.400538   23.611181 H          1 MOL1         0.0971
       8    C2      20.467642   19.453517   22.510540 C.3        1 MOL1        -0.1369
       9    H6      19.491474   19.946729   22.599441 H          1 MOL1         0.0997
      10    H7      20.923782   19.803982   21.575167 H          1 MOL1         0.0997
      11    C3      20.284773   17.918302   22.457550 C.3        1 MOL1        -0.1329
      12    H8      19.786313   17.573047   23.374024 H          1 MOL1         0.0997
      13    H9      21.274310   17.440365   22.445932 H          1 MOL1         0.0997
      14    C4      19.489066   17.433105   21.221386 C.3        1 MOL1        -0.1305
      15    H10     19.997155   17.755911   20.301865 H          1 MOL1         0.0997
      16    H11     19.496503   16.334171   21.206318 H          1 MOL1         0.0997
      17    C5      18.022510   17.921401   21.203690 C.3        1 MOL1        -0.2320
      18    H12     17.961265   19.011486   21.096987 H          1 MOL1         0.1008
      19    H13     17.479923   17.476989   20.359267 H          1 MOL1         0.1008
      20    H14     17.499675   17.635627   22.125640 H          1 MOL1         0.1008
@<TRIPOS>BOND
    1     1     2    1
    2     1     3    1
    3     1     4    1
    4     1     5    1
    5     5     6    1
    6     5     7    1
    7     5     8    1
    8     8     9    1
    9     8    10    1
   10     8    11    1
   11    11    12    1
   12    11    13    1
   13    11    14    1
   14    14    15    1
   15    14    16    1
   16    14    17    1
   17    17    18    1
   18    17    19    1
   19    17    20    1
@<TRIPOS>SUBSTRUCTURE
       1 MOL1            1 RESIDUE      1      MOL     
@<SCITEGIC>MOL_PROPERTY
VConf Rank
SciTegic.value.IntegerValue
115

@<SCITEGIC>MOL_PROPERTY
Conf_Id
SciTegic.value.IntegerValue
41

@<SCITEGIC>MOL_PROPERTY
Delta U+W
SciTegic.value.DoubleValue
0.515

@<SCITEGIC>MOL_PROPERTY
U+W
SciTegic.value.DoubleValue
-11.263

@<SCITEGIC>MOL_PROPERTY
Grad RMS
SciTegic.value.DoubleValue
0.000000

@<SCITEGIC>MOL_PROPERTY
U
SciTegic.value.DoubleValue
46.486

@<SCITEGIC>MOL_PROPERTY
W
SciTegic.value.DoubleValue
-57.749

@<SCITEGIC>MOL_PROPERTY
W(PB)
SciTegic.value.DoubleValue
-59.685

@<SCITEGIC>MOL_PROPERTY
W(SA)
SciTegic.value.DoubleValue
1.936

@<SCITEGIC>MOL_PROPERTY
Valence
SciTegic.value.DoubleValue
1.806

@<SCITEGIC>MOL_PROPERTY
Coulomb
SciTegic.value.DoubleValue
44.248

@<SCITEGIC>MOL_PROPERTY
VdW
SciTegic.value.DoubleValue
0.433

@<SCITEGIC>MOL_PROPERTY
VdW6
SciTegic.value.DoubleValue
-4.089

@<SCITEGIC>MOL_PROPERTY
VdW12
SciTegic.value.DoubleValue
4.522

@<SCITEGIC>MOL_PROPERTY
Bond
SciTegic.value.DoubleValue
0.131

@<SCITEGIC>MOL_PROPERTY
Angle
SciTegic.value.DoubleValue
0.628

@<SCITEGIC>MOL_PROPERTY
Pdih
SciTegic.value.DoubleValue
1.047

@<SCITEGIC>MOL_PROPERTY
Idih
SciTegic.value.DoubleValue
0.000

@<SCITEGIC>MOL_PROPERTY
Tether
SciTegic.value.DoubleValue
0.000

@<TRIPOS>MOLECULE
guest-s11_confgen4.mol2 : confsearch ligand conformer 116
          20          19           1
SMALL
USER_CHARGES
 
@<TRIPOS>ATOM
       1    N1      22.746760   18.932373   23.387537 N.4        1 MOL1        -0.5919
       2    H1      23.738120   18.707845   23.252284 H          1 MOL1         0.3682
       3    H2      22.643538   19.937727   23.221560 H          1 MOL1         0.3682
       4    H3      22.535950   18.765397   24.376411 H          1 MOL1         0.3682
       5    C1      21.854798   18.114061   22.473791 C.3        1 MOL1         0.0252
       6    H4      22.052338   17.058216   22.678168 H          1 MOL1         0.0971
       7    H5      22.146119   18.320255   21.440323 H          1 MOL1         0.0971
       8    C2      20.349981   18.394773   22.654339 C.3        1 MOL1        -0.1369
       9    H6      19.795381   17.674903   22.039673 H          1 MOL1         0.0997
      10    H7      20.064120   18.203590   23.697134 H          1 MOL1         0.0997
      11    C3      19.957952   19.838807   22.251604 C.3        1 MOL1        -0.1329
      12    H8      20.226164   20.015293   21.200708 H          1 MOL1         0.0997
      13    H9      20.542522   20.554966   22.844057 H          1 MOL1         0.0997
      14    C4      18.456067   20.151012   22.461008 C.3        1 MOL1        -0.1305
      15    H10     18.185812   19.989093   23.513914 H          1 MOL1         0.0997
      16    H11     18.287385   21.218649   22.261914 H          1 MOL1         0.0997
      17    C5      17.521032   19.322422   21.550562 C.3        1 MOL1        -0.2320
      18    H12     17.559731   18.254152   21.796673 H          1 MOL1         0.1008
      19    H13     16.480105   19.649760   21.670015 H          1 MOL1         0.1008
      20    H14     17.790655   19.442457   20.493255 H          1 MOL1         0.1008
@<TRIPOS>BOND
    1     1     2    1
    2     1     3    1
    3     1     4    1
    4     1     5    1
    5     5     6    1
    6     5     7    1
    7     5     8    1
    8     8     9    1
    9     8    10    1
   10     8    11    1
   11    11    12    1
   12    11    13    1
   13    11    14    1
   14    14    15    1
   15    14    16    1
   16    14    17    1
   17    17    18    1
   18    17    19    1
   19    17    20    1
@<TRIPOS>SUBSTRUCTURE
       1 MOL1            1 RESIDUE      1      MOL     
@<SCITEGIC>MOL_PROPERTY
VConf Rank
SciTegic.value.IntegerValue
116

@<SCITEGIC>MOL_PROPERTY
Conf_Id
SciTegic.value.IntegerValue
33

@<SCITEGIC>MOL_PROPERTY
Delta U+W
SciTegic.value.DoubleValue
0.703

@<SCITEGIC>MOL_PROPERTY
U+W
SciTegic.value.DoubleValue
-11.075

@<SCITEGIC>MOL_PROPERTY
Grad RMS
SciTegic.value.DoubleValue
0.000000

@<SCITEGIC>MOL_PROPERTY
U
SciTegic.value.DoubleValue
47.080

@<SCITEGIC>MOL_PROPERTY
W
SciTegic.value.DoubleValue
-58.154

@<SCITEGIC>MOL_PROPERTY
W(PB)
SciTegic.value.DoubleValue
-60.053

@<SCITEGIC>MOL_PROPERTY
W(SA)
SciTegic.value.DoubleValue
1.899

@<SCITEGIC>MOL_PROPERTY
Valence
SciTegic.value.DoubleValue
1.943

@<SCITEGIC>MOL_PROPERTY
Coulomb
SciTegic.value.DoubleValue
44.572

@<SCITEGIC>MOL_PROPERTY
VdW
SciTegic.value.DoubleValue
0.565

@<SCITEGIC>MOL_PROPERTY
VdW6
SciTegic.value.DoubleValue
-4.575

@<SCITEGIC>MOL_PROPERTY
VdW12
SciTegic.value.DoubleValue
5.139

@<SCITEGIC>MOL_PROPERTY
Bond
SciTegic.value.DoubleValue
0.158

@<SCITEGIC>MOL_PROPERTY
Angle
SciTegic.value.DoubleValue
0.700

@<SCITEGIC>MOL_PROPERTY
Pdih
SciTegic.value.DoubleValue
1.085

@<SCITEGIC>MOL_PROPERTY
Idih
SciTegic.value.DoubleValue
0.000

@<SCITEGIC>MOL_PROPERTY
Tether
SciTegic.value.DoubleValue
0.000

@<TRIPOS>MOLECULE
guest-s11_confgen4.mol2 : confsearch ligand conformer 117
          20          19           1
SMALL
USER_CHARGES
 
@<TRIPOS>ATOM
       1    N1      21.754246   17.685028   24.194458 N.4        1 MOL1        -0.5919
       2    H1      22.262676   16.833952   24.456508 H          1 MOL1         0.3682
       3    H2      22.257396   18.473311   24.613554 H          1 MOL1         0.3682
       4    H3      20.837164   17.635825   24.647755 H          1 MOL1         0.3682
       5    C1      21.633955   17.827618   22.689347 C.3        1 MOL1         0.0252
       6    H4      21.110925   16.947699   22.305128 H          1 MOL1         0.0971
       7    H5      22.646105   17.828698   22.275642 H          1 MOL1         0.0971
       8    C2      20.898697   19.105507   22.239616 C.3        1 MOL1        -0.1369
       9    H6      21.416224   19.986652   22.641415 H          1 MOL1         0.0997
      10    H7      20.970516   19.170328   21.146800 H          1 MOL1         0.0997
      11    C3      19.409766   19.121693   22.668495 C.3        1 MOL1        -0.1329
      12    H8      19.342579   19.019904   23.759703 H          1 MOL1         0.0997
      13    H9      18.893293   18.249474   22.244280 H          1 MOL1         0.0997
      14    C4      18.663745   20.414455   22.257162 C.3        1 MOL1        -0.1305
      15    H10     17.656064   20.393954   22.695453 H          1 MOL1         0.0997
      16    H11     19.168747   21.289164   22.690432 H          1 MOL1         0.0997
      17    C5      18.536014   20.592531   20.726888 C.3        1 MOL1        -0.2320
      18    H12     18.062168   19.716567   20.265194 H          1 MOL1         0.1008
      19    H13     17.918792   21.469550   20.492747 H          1 MOL1         0.1008
      20    H14     19.514383   20.743824   20.254472 H          1 MOL1         0.1008
@<TRIPOS>BOND
    1     1     2    1
    2     1     3    1
    3     1     4    1
    4     1     5    1
    5     5     6    1
    6     5     7    1
    7     5     8    1
    8     8     9    1
    9     8    10    1
   10     8    11    1
   11    11    12    1
   12    11    13    1
   13    11    14    1
   14    14    15    1
   15    14    16    1
   16    14    17    1
   17    17    18    1
   18    17    19    1
   19    17    20    1
@<TRIPOS>SUBSTRUCTURE
       1 MOL1            1 RESIDUE      1      MOL     
@<SCITEGIC>MOL_PROPERTY
VConf Rank
SciTegic.value.IntegerValue
117

@<SCITEGIC>MOL_PROPERTY
Conf_Id
SciTegic.value.IntegerValue
24

@<SCITEGIC>MOL_PROPERTY
Delta U+W
SciTegic.value.DoubleValue
0.847

@<SCITEGIC>MOL_PROPERTY
U+W
SciTegic.value.DoubleValue
-10.931

@<SCITEGIC>MOL_PROPERTY
Grad RMS
SciTegic.value.DoubleValue
0.000000

@<SCITEGIC>MOL_PROPERTY
U
SciTegic.value.DoubleValue
47.080

@<SCITEGIC>MOL_PROPERTY
W
SciTegic.value.DoubleValue
-58.011

@<SCITEGIC>MOL_PROPERTY
W(PB)
SciTegic.value.DoubleValue
-59.914

@<SCITEGIC>MOL_PROPERTY
W(SA)
SciTegic.value.DoubleValue
1.903

@<SCITEGIC>MOL_PROPERTY
Valence
SciTegic.value.DoubleValue
1.943

@<SCITEGIC>MOL_PROPERTY
Coulomb
SciTegic.value.DoubleValue
44.572

@<SCITEGIC>MOL_PROPERTY
VdW
SciTegic.value.DoubleValue
0.565

@<SCITEGIC>MOL_PROPERTY
VdW6
SciTegic.value.DoubleValue
-4.575

@<SCITEGIC>MOL_PROPERTY
VdW12
SciTegic.value.DoubleValue
5.140

@<SCITEGIC>MOL_PROPERTY
Bond
SciTegic.value.DoubleValue
0.158

@<SCITEGIC>MOL_PROPERTY
Angle
SciTegic.value.DoubleValue
0.700

@<SCITEGIC>MOL_PROPERTY
Pdih
SciTegic.value.DoubleValue
1.085

@<SCITEGIC>MOL_PROPERTY
Idih
SciTegic.value.DoubleValue
0.000

@<SCITEGIC>MOL_PROPERTY
Tether
SciTegic.value.DoubleValue
0.000

@<TRIPOS>MOLECULE
guest-s11_confgen4.mol2 : confsearch ligand conformer 118
          20          19           1
SMALL
USER_CHARGES
 
@<TRIPOS>ATOM
       1    N1      22.834331   19.617815   22.211767 N.4        1 MOL1        -0.5919
       2    H1      23.408439   19.419408   21.385617 H          1 MOL1         0.3682
       3    H2      22.710876   20.634402   22.250886 H          1 MOL1         0.3682
       4    H3      23.389629   19.350073   23.030466 H          1 MOL1         0.3682
       5    C1      21.507497   18.887354   22.164171 C.3        1 MOL1         0.0252
       6    H4      21.713752   17.815935   22.094195 H          1 MOL1         0.0971
       7    H5      20.985946   19.197373   21.254855 H          1 MOL1         0.0971
       8    C2      20.619524   19.164670   23.391863 C.3        1 MOL1        -0.1369
       9    H6      21.168661   18.888598   24.301804 H          1 MOL1         0.0997
      10    H7      20.419393   20.241037   23.468259 H          1 MOL1         0.0997
      11    C3      19.284952   18.378768   23.356224 C.3        1 MOL1        -0.1329
      12    H8      18.709320   18.612983   24.262344 H          1 MOL1         0.0997
      13    H9      19.503237   17.303000   23.406888 H          1 MOL1         0.0997
      14    C4      18.402617   18.650446   22.110872 C.3        1 MOL1        -0.1305
      15    H10     18.921278   18.323238   21.199443 H          1 MOL1         0.0997
      16    H11     17.497606   18.030834   22.180989 H          1 MOL1         0.0997
      17    C5      17.982255   20.130821   21.966672 C.3        1 MOL1        -0.2320
      18    H12     17.285910   20.252688   21.126936 H          1 MOL1         0.1008
      19    H13     17.479156   20.488695   22.874302 H          1 MOL1         0.1008
      20    H14     18.846901   20.778153   21.774360 H          1 MOL1         0.1008
@<TRIPOS>BOND
    1     1     2    1
    2     1     3    1
    3     1     4    1
    4     1     5    1
    5     5     6    1
    6     5     7    1
    7     5     8    1
    8     8     9    1
    9     8    10    1
   10     8    11    1
   11    11    12    1
   12    11    13    1
   13    11    14    1
   14    14    15    1
   15    14    16    1
   16    14    17    1
   17    17    18    1
   18    17    19    1
   19    17    20    1
@<TRIPOS>SUBSTRUCTURE
       1 MOL1            1 RESIDUE      1      MOL     
@<SCITEGIC>MOL_PROPERTY
VConf Rank
SciTegic.value.IntegerValue
118

@<SCITEGIC>MOL_PROPERTY
Conf_Id
SciTegic.value.IntegerValue
64

@<SCITEGIC>MOL_PROPERTY
Delta U+W
SciTegic.value.DoubleValue
0.707

@<SCITEGIC>MOL_PROPERTY
U+W
SciTegic.value.DoubleValue
-11.070

@<SCITEGIC>MOL_PROPERTY
Grad RMS
SciTegic.value.DoubleValue
0.000000

@<SCITEGIC>MOL_PROPERTY
U
SciTegic.value.DoubleValue
47.077

@<SCITEGIC>MOL_PROPERTY
W
SciTegic.value.DoubleValue
-58.148

@<SCITEGIC>MOL_PROPERTY
W(PB)
SciTegic.value.DoubleValue
-60.054

@<SCITEGIC>MOL_PROPERTY
W(SA)
SciTegic.value.DoubleValue
1.906

@<SCITEGIC>MOL_PROPERTY
Valence
SciTegic.value.DoubleValue
2.039

@<SCITEGIC>MOL_PROPERTY
Coulomb
SciTegic.value.DoubleValue
44.655

@<SCITEGIC>MOL_PROPERTY
VdW
SciTegic.value.DoubleValue
0.383

@<SCITEGIC>MOL_PROPERTY
VdW6
SciTegic.value.DoubleValue
-4.912

@<SCITEGIC>MOL_PROPERTY
VdW12
SciTegic.value.DoubleValue
5.295

@<SCITEGIC>MOL_PROPERTY
Bond
SciTegic.value.DoubleValue
0.159

@<SCITEGIC>MOL_PROPERTY
Angle
SciTegic.value.DoubleValue
0.856

@<SCITEGIC>MOL_PROPERTY
Pdih
SciTegic.value.DoubleValue
1.024

@<SCITEGIC>MOL_PROPERTY
Idih
SciTegic.value.DoubleValue
0.000

@<SCITEGIC>MOL_PROPERTY
Tether
SciTegic.value.DoubleValue
0.000

@<TRIPOS>MOLECULE
guest-s11_confgen4.mol2 : confsearch ligand conformer 119
          20          19           1
SMALL
USER_CHARGES
 
@<TRIPOS>ATOM
       1    N1      18.838930   20.096783   20.342477 N.4        1 MOL1        -0.5919
       2    H1      18.338963   19.398821   19.782843 H          1 MOL1         0.3682
       3    H2      18.149621   20.538753   20.958705 H          1 MOL1         0.3682
       4    H3      19.164629   20.820406   19.693033 H          1 MOL1         0.3682
       5    C1      19.984257   19.482683   21.121857 C.3        1 MOL1         0.0252
       6    H4      20.487475   20.285169   21.667543 H          1 MOL1         0.0971
       7    H5      20.691844   19.057961   20.404702 H          1 MOL1         0.0971
       8    C2      19.528440   18.390907   22.108203 C.3        1 MOL1        -0.1369
       9    H6      18.811080   18.814031   22.822917 H          1 MOL1         0.0997
      10    H7      18.988267   17.610755   21.555629 H          1 MOL1         0.0997
      11    C3      20.710285   17.737656   22.867480 C.3        1 MOL1        -0.1329
      12    H8      21.350729   17.211922   22.145726 H          1 MOL1         0.0997
      13    H9      20.316758   16.964130   23.541318 H          1 MOL1         0.0997
      14    C4      21.584328   18.724038   23.683766 C.3        1 MOL1        -0.1305
      15    H10     22.396812   18.158939   24.161694 H          1 MOL1         0.0997
      16    H11     22.072738   19.443448   23.012439 H          1 MOL1         0.0997
      17    C5      20.797203   19.483704   24.775713 C.3        1 MOL1        -0.2320
      18    H12     20.281998   18.786080   25.448662 H          1 MOL1         0.1008
      19    H13     21.476044   20.096157   25.383152 H          1 MOL1         0.1008
      20    H14     20.048819   20.156289   24.338463 H          1 MOL1         0.1008
@<TRIPOS>BOND
    1     1     2    1
    2     1     3    1
    3     1     4    1
    4     1     5    1
    5     5     6    1
    6     5     7    1
    7     5     8    1
    8     8     9    1
    9     8    10    1
   10     8    11    1
   11    11    12    1
   12    11    13    1
   13    11    14    1
   14    14    15    1
   15    14    16    1
   16    14    17    1
   17    17    18    1
   18    17    19    1
   19    17    20    1
@<TRIPOS>SUBSTRUCTURE
       1 MOL1            1 RESIDUE      1      MOL     
@<SCITEGIC>MOL_PROPERTY
VConf Rank
SciTegic.value.IntegerValue
119

@<SCITEGIC>MOL_PROPERTY
Conf_Id
SciTegic.value.IntegerValue
22

@<SCITEGIC>MOL_PROPERTY
Delta U+W
SciTegic.value.DoubleValue
0.731

@<SCITEGIC>MOL_PROPERTY
U+W
SciTegic.value.DoubleValue
-11.047

@<SCITEGIC>MOL_PROPERTY
Grad RMS
SciTegic.value.DoubleValue
0.000000

@<SCITEGIC>MOL_PROPERTY
U
SciTegic.value.DoubleValue
47.078

@<SCITEGIC>MOL_PROPERTY
W
SciTegic.value.DoubleValue
-58.125

@<SCITEGIC>MOL_PROPERTY
W(PB)
SciTegic.value.DoubleValue
-60.031

@<SCITEGIC>MOL_PROPERTY
W(SA)
SciTegic.value.DoubleValue
1.906

@<SCITEGIC>MOL_PROPERTY
Valence
SciTegic.value.DoubleValue
2.039

@<SCITEGIC>MOL_PROPERTY
Coulomb
SciTegic.value.DoubleValue
44.655

@<SCITEGIC>MOL_PROPERTY
VdW
SciTegic.value.DoubleValue
0.383

@<SCITEGIC>MOL_PROPERTY
VdW6
SciTegic.value.DoubleValue
-4.913

@<SCITEGIC>MOL_PROPERTY
VdW12
SciTegic.value.DoubleValue
5.296

@<SCITEGIC>MOL_PROPERTY
Bond
SciTegic.value.DoubleValue
0.159

@<SCITEGIC>MOL_PROPERTY
Angle
SciTegic.value.DoubleValue
0.856

@<SCITEGIC>MOL_PROPERTY
Pdih
SciTegic.value.DoubleValue
1.024

@<SCITEGIC>MOL_PROPERTY
Idih
SciTegic.value.DoubleValue
0.000

@<SCITEGIC>MOL_PROPERTY
Tether
SciTegic.value.DoubleValue
0.000

@<TRIPOS>MOLECULE
guest-s11_confgen4.mol2 : confsearch ligand conformer 120
          20          19           1
SMALL
USER_CHARGES
 
@<TRIPOS>ATOM
       1    N1      17.939989   20.452356   21.485733 N.4        1 MOL1        -0.5919
       2    H1      17.775779   21.188528   22.179577 H          1 MOL1         0.3682
       3    H2      18.114521   20.917157   20.589178 H          1 MOL1         0.3682
       4    H3      17.059767   19.935848   21.386134 H          1 MOL1         0.3682
       5    C1      19.084855   19.543131   21.884734 C.3        1 MOL1         0.0252
       6    H4      19.185745   18.769870   21.118389 H          1 MOL1         0.0971
       7    H5      18.814432   19.064225   22.828549 H          1 MOL1         0.0971
       8    C2      20.420659   20.289878   22.048039 C.3        1 MOL1        -0.1369
       9    H6      20.618864   20.863086   21.132577 H          1 MOL1         0.0997
      10    H7      20.332319   21.023720   22.860110 H          1 MOL1         0.0997
      11    C3      21.631358   19.360303   22.316389 C.3        1 MOL1        -0.1329
      12    H8      22.533554   19.987637   22.323255 H          1 MOL1         0.0997
      13    H9      21.763751   18.659691   21.480349 H          1 MOL1         0.0997
      14    C4      21.575826   18.586771   23.659428 C.3        1 MOL1        -0.1305
      15    H10     22.606506   18.393222   23.988580 H          1 MOL1         0.0997
      16    H11     21.122223   19.212006   24.441135 H          1 MOL1         0.0997
      17    C5      20.845363   17.226187   23.569588 C.3        1 MOL1        -0.2320
      18    H12     19.782122   17.339757   23.334013 H          1 MOL1         0.1008
      19    H13     21.298158   16.586159   22.801249 H          1 MOL1         0.1008
      20    H14     20.912815   16.693079   24.526787 H          1 MOL1         0.1008
@<TRIPOS>BOND
    1     1     2    1
    2     1     3    1
    3     1     4    1
    4     1     5    1
    5     5     6    1
    6     5     7    1
    7     5     8    1
    8     8     9    1
    9     8    10    1
   10     8    11    1
   11    11    12    1
   12    11    13    1
   13    11    14    1
   14    14    15    1
   15    14    16    1
   16    14    17    1
   17    17    18    1
   18    17    19    1
   19    17    20    1
@<TRIPOS>SUBSTRUCTURE
       1 MOL1            1 RESIDUE      1      MOL     
@<SCITEGIC>MOL_PROPERTY
VConf Rank
SciTegic.value.IntegerValue
120

@<SCITEGIC>MOL_PROPERTY
Conf_Id
SciTegic.value.IntegerValue
61

@<SCITEGIC>MOL_PROPERTY
Delta U+W
SciTegic.value.DoubleValue
2.669

@<SCITEGIC>MOL_PROPERTY
U+W
SciTegic.value.DoubleValue
-9.108

@<SCITEGIC>MOL_PROPERTY
Grad RMS
SciTegic.value.DoubleValue
0.000000

@<SCITEGIC>MOL_PROPERTY
U
SciTegic.value.DoubleValue
48.916

@<SCITEGIC>MOL_PROPERTY
W
SciTegic.value.DoubleValue
-58.025

@<SCITEGIC>MOL_PROPERTY
W(PB)
SciTegic.value.DoubleValue
-59.935

@<SCITEGIC>MOL_PROPERTY
W(SA)
SciTegic.value.DoubleValue
1.911

@<SCITEGIC>MOL_PROPERTY
Valence
SciTegic.value.DoubleValue
3.785

@<SCITEGIC>MOL_PROPERTY
Coulomb
SciTegic.value.DoubleValue
44.716

@<SCITEGIC>MOL_PROPERTY
VdW
SciTegic.value.DoubleValue
0.415

@<SCITEGIC>MOL_PROPERTY
VdW6
SciTegic.value.DoubleValue
-4.836

@<SCITEGIC>MOL_PROPERTY
VdW12
SciTegic.value.DoubleValue
5.251

@<SCITEGIC>MOL_PROPERTY
Bond
SciTegic.value.DoubleValue
0.175

@<SCITEGIC>MOL_PROPERTY
Angle
SciTegic.value.DoubleValue
1.195

@<SCITEGIC>MOL_PROPERTY
Pdih
SciTegic.value.DoubleValue
2.415

@<SCITEGIC>MOL_PROPERTY
Idih
SciTegic.value.DoubleValue
0.000

@<SCITEGIC>MOL_PROPERTY
Tether
SciTegic.value.DoubleValue
0.000

@<TRIPOS>MOLECULE
guest-s11_confgen4.mol2 : confsearch ligand conformer 121
          20          19           1
SMALL
USER_CHARGES
 
@<TRIPOS>ATOM
       1    N1      18.759245   17.676232   21.203894 N.4        1 MOL1        -0.5919
       2    H1      18.256925   17.567629   20.316469 H          1 MOL1         0.3682
       3    H2      18.484672   16.887891   21.798394 H          1 MOL1         0.3682
       4    H3      18.404553   18.527207   21.647808 H          1 MOL1         0.3682
       5    C1      20.260880   17.728235   20.996627 C.3        1 MOL1         0.0252
       6    H4      20.490148   18.548852   20.311528 H          1 MOL1         0.0971
       7    H5      20.547265   16.791922   20.509942 H          1 MOL1         0.0971
       8    C2      21.077529   17.887087   22.296368 C.3        1 MOL1        -0.1369
       9    H6      20.664233   17.240838   23.082092 H          1 MOL1         0.0997
      10    H7      22.091153   17.512410   22.101292 H          1 MOL1         0.0997
      11    C3      21.201059   19.346131   22.805974 C.3        1 MOL1        -0.1329
      12    H8      21.669589   19.966674   22.029526 H          1 MOL1         0.0997
      13    H9      21.892494   19.352308   23.659999 H          1 MOL1         0.0997
      14    C4      19.863415   19.988625   23.242117 C.3        1 MOL1        -0.1305
      15    H10     19.212407   20.130418   22.370375 H          1 MOL1         0.0997
      16    H11     19.337526   19.320795   23.938814 H          1 MOL1         0.0997
      17    C5      20.084673   21.358717   23.918071 C.3        1 MOL1        -0.2320
      18    H12     19.126065   21.805246   24.212577 H          1 MOL1         0.1008
      19    H13     20.700540   21.259465   24.821442 H          1 MOL1         0.1008
      20    H14     20.586924   22.058347   23.237240 H          1 MOL1         0.1008
@<TRIPOS>BOND
    1     1     2    1
    2     1     3    1
    3     1     4    1
    4     1     5    1
    5     5     6    1
    6     5     7    1
    7     5     8    1
    8     8     9    1
    9     8    10    1
   10     8    11    1
   11    11    12    1
   12    11    13    1
   13    11    14    1
   14    14    15    1
   15    14    16    1
   16    14    17    1
   17    17    18    1
   18    17    19    1
   19    17    20    1
@<TRIPOS>SUBSTRUCTURE
       1 MOL1            1 RESIDUE      1      MOL     
@<SCITEGIC>MOL_PROPERTY
VConf Rank
SciTegic.value.IntegerValue
121

@<SCITEGIC>MOL_PROPERTY
Conf_Id
SciTegic.value.IntegerValue
69

@<SCITEGIC>MOL_PROPERTY
Delta U+W
SciTegic.value.DoubleValue
2.811

@<SCITEGIC>MOL_PROPERTY
U+W
SciTegic.value.DoubleValue
-8.967

@<SCITEGIC>MOL_PROPERTY
Grad RMS
SciTegic.value.DoubleValue
0.000000

@<SCITEGIC>MOL_PROPERTY
U
SciTegic.value.DoubleValue
49.216

@<SCITEGIC>MOL_PROPERTY
W
SciTegic.value.DoubleValue
-58.183

@<SCITEGIC>MOL_PROPERTY
W(PB)
SciTegic.value.DoubleValue
-60.064

@<SCITEGIC>MOL_PROPERTY
W(SA)
SciTegic.value.DoubleValue
1.881

@<SCITEGIC>MOL_PROPERTY
Valence
SciTegic.value.DoubleValue
2.929

@<SCITEGIC>MOL_PROPERTY
Coulomb
SciTegic.value.DoubleValue
46.006

@<SCITEGIC>MOL_PROPERTY
VdW
SciTegic.value.DoubleValue
0.281

@<SCITEGIC>MOL_PROPERTY
VdW6
SciTegic.value.DoubleValue
-4.909

@<SCITEGIC>MOL_PROPERTY
VdW12
SciTegic.value.DoubleValue
5.190

@<SCITEGIC>MOL_PROPERTY
Bond
SciTegic.value.DoubleValue
0.156

@<SCITEGIC>MOL_PROPERTY
Angle
SciTegic.value.DoubleValue
0.974

@<SCITEGIC>MOL_PROPERTY
Pdih
SciTegic.value.DoubleValue
1.799

@<SCITEGIC>MOL_PROPERTY
Idih
SciTegic.value.DoubleValue
0.000

@<SCITEGIC>MOL_PROPERTY
Tether
SciTegic.value.DoubleValue
0.000

@<TRIPOS>MOLECULE
guest-s11_confgen4.mol2 : confsearch ligand conformer 122
          20          19           1
SMALL
USER_CHARGES
 
@<TRIPOS>ATOM
       1    N1      19.033933   20.747531   21.129554 N.4        1 MOL1        -0.5919
       2    H1      19.087359   19.768861   20.835652 H          1 MOL1         0.3682
       3    H2      18.093446   20.898999   21.507505 H          1 MOL1         0.3682
       4    H3      19.109206   21.320885   20.282653 H          1 MOL1         0.3682
       5    C1      20.109408   21.095550   22.140892 C.3        1 MOL1         0.0252
       6    H4      19.984779   22.153807   22.386078 H          1 MOL1         0.0971
       7    H5      21.086900   20.971495   21.667119 H          1 MOL1         0.0971
       8    C2      20.049649   20.269536   23.443047 C.3        1 MOL1        -0.1369
       9    H6      20.562049   20.843958   24.226218 H          1 MOL1         0.0997
      10    H7      19.008544   20.168100   23.777154 H          1 MOL1         0.0997
      11    C3      20.727244   18.877788   23.355437 C.3        1 MOL1        -0.1329
      12    H8      20.726790   18.433738   24.360573 H          1 MOL1         0.0997
      13    H9      21.782998   19.001503   23.076970 H          1 MOL1         0.0997
      14    C4      20.047148   17.893849   22.374803 C.3        1 MOL1        -0.1305
      15    H10     18.968397   17.847359   22.579937 H          1 MOL1         0.0997
      16    H11     20.169171   18.246591   21.343040 H          1 MOL1         0.0997
      17    C5      20.648455   16.476249   22.483692 C.3        1 MOL1        -0.2320
      18    H12     20.513427   16.065529   23.492800 H          1 MOL1         0.1008
      19    H13     20.162090   15.793149   21.775260 H          1 MOL1         0.1008
      20    H14     21.723079   16.484907   22.259237 H          1 MOL1         0.1008
@<TRIPOS>BOND
    1     1     2    1
    2     1     3    1
    3     1     4    1
    4     1     5    1
    5     5     6    1
    6     5     7    1
    7     5     8    1
    8     8     9    1
    9     8    10    1
   10     8    11    1
   11    11    12    1
   12    11    13    1
   13    11    14    1
   14    14    15    1
   15    14    16    1
   16    14    17    1
   17    17    18    1
   18    17    19    1
   19    17    20    1
@<TRIPOS>SUBSTRUCTURE
       1 MOL1            1 RESIDUE      1      MOL     
@<SCITEGIC>MOL_PROPERTY
VConf Rank
SciTegic.value.IntegerValue
122

@<SCITEGIC>MOL_PROPERTY
Conf_Id
SciTegic.value.IntegerValue
26

@<SCITEGIC>MOL_PROPERTY
Delta U+W
SciTegic.value.DoubleValue
2.809

@<SCITEGIC>MOL_PROPERTY
U+W
SciTegic.value.DoubleValue
-8.969

@<SCITEGIC>MOL_PROPERTY
Grad RMS
SciTegic.value.DoubleValue
0.000000

@<SCITEGIC>MOL_PROPERTY
U
SciTegic.value.DoubleValue
49.216

@<SCITEGIC>MOL_PROPERTY
W
SciTegic.value.DoubleValue
-58.185

@<SCITEGIC>MOL_PROPERTY
W(PB)
SciTegic.value.DoubleValue
-60.088

@<SCITEGIC>MOL_PROPERTY
W(SA)
SciTegic.value.DoubleValue
1.903

@<SCITEGIC>MOL_PROPERTY
Valence
SciTegic.value.DoubleValue
2.929

@<SCITEGIC>MOL_PROPERTY
Coulomb
SciTegic.value.DoubleValue
46.006

@<SCITEGIC>MOL_PROPERTY
VdW
SciTegic.value.DoubleValue
0.281

@<SCITEGIC>MOL_PROPERTY
VdW6
SciTegic.value.DoubleValue
-4.909

@<SCITEGIC>MOL_PROPERTY
VdW12
SciTegic.value.DoubleValue
5.190

@<SCITEGIC>MOL_PROPERTY
Bond
SciTegic.value.DoubleValue
0.156

@<SCITEGIC>MOL_PROPERTY
Angle
SciTegic.value.DoubleValue
0.974

@<SCITEGIC>MOL_PROPERTY
Pdih
SciTegic.value.DoubleValue
1.799

@<SCITEGIC>MOL_PROPERTY
Idih
SciTegic.value.DoubleValue
0.000

@<SCITEGIC>MOL_PROPERTY
Tether
SciTegic.value.DoubleValue
0.000

@<TRIPOS>MOLECULE
guest-s11_confgen4.mol2 : confsearch ligand conformer 123
          20          19           1
SMALL
USER_CHARGES
 
@<TRIPOS>ATOM
       1    N1      19.026882   18.411855   24.477712 N.4        1 MOL1        -0.5919
       2    H1      19.647436   17.657251   24.170426 H          1 MOL1         0.3682
       3    H2      19.390741   18.758345   25.370791 H          1 MOL1         0.3682
       4    H3      18.112929   17.989451   24.671552 H          1 MOL1         0.3682
       5    C1      18.929901   19.515239   23.442271 C.3        1 MOL1         0.0252
       6    H4      18.231679   20.266712   23.820797 H          1 MOL1         0.0971
       7    H5      18.506366   19.088449   22.529363 H          1 MOL1         0.0971
       8    C2      20.281227   20.186663   23.123834 C.3        1 MOL1        -0.1369
       9    H6      20.108074   21.017926   22.428456 H          1 MOL1         0.0997
      10    H7      20.681252   20.641111   24.039855 H          1 MOL1         0.0997
      11    C3      21.340013   19.221578   22.528369 C.3        1 MOL1        -0.1329
      12    H8      21.630276   18.485681   23.290216 H          1 MOL1         0.0997
      13    H9      22.251904   19.792046   22.304269 H          1 MOL1         0.0997
      14    C4      20.888575   18.469559   21.250206 C.3        1 MOL1        -0.1305
      15    H10     21.701517   17.802857   20.930077 H          1 MOL1         0.0997
      16    H11     20.034198   17.816752   21.474661 H          1 MOL1         0.0997
      17    C5      20.527946   19.412098   20.079560 C.3        1 MOL1        -0.2320
      18    H12     21.360889   20.087731   19.845704 H          1 MOL1         0.1008
      19    H13     20.301847   18.832753   19.175059 H          1 MOL1         0.1008
      20    H14     19.645219   20.021336   20.310264 H          1 MOL1         0.1008
@<TRIPOS>BOND
    1     1     2    1
    2     1     3    1
    3     1     4    1
    4     1     5    1
    5     5     6    1
    6     5     7    1
    7     5     8    1
    8     8     9    1
    9     8    10    1
   10     8    11    1
   11    11    12    1
   12    11    13    1
   13    11    14    1
   14    14    15    1
   15    14    16    1
   16    14    17    1
   17    17    18    1
   18    17    19    1
   19    17    20    1
@<TRIPOS>SUBSTRUCTURE
       1 MOL1            1 RESIDUE      1      MOL     
@<SCITEGIC>MOL_PROPERTY
VConf Rank
SciTegic.value.IntegerValue
123

@<SCITEGIC>MOL_PROPERTY
Conf_Id
SciTegic.value.IntegerValue
2

@<SCITEGIC>MOL_PROPERTY
Delta U+W
SciTegic.value.DoubleValue
0.994

@<SCITEGIC>MOL_PROPERTY
U+W
SciTegic.value.DoubleValue
-10.784

@<SCITEGIC>MOL_PROPERTY
Grad RMS
SciTegic.value.DoubleValue
0.000000

@<SCITEGIC>MOL_PROPERTY
U
SciTegic.value.DoubleValue
47.562

@<SCITEGIC>MOL_PROPERTY
W
SciTegic.value.DoubleValue
-58.346

@<SCITEGIC>MOL_PROPERTY
W(PB)
SciTegic.value.DoubleValue
-60.221

@<SCITEGIC>MOL_PROPERTY
W(SA)
SciTegic.value.DoubleValue
1.875

@<SCITEGIC>MOL_PROPERTY
Valence
SciTegic.value.DoubleValue
2.149

@<SCITEGIC>MOL_PROPERTY
Coulomb
SciTegic.value.DoubleValue
45.034

@<SCITEGIC>MOL_PROPERTY
VdW
SciTegic.value.DoubleValue
0.378

@<SCITEGIC>MOL_PROPERTY
VdW6
SciTegic.value.DoubleValue
-5.599

@<SCITEGIC>MOL_PROPERTY
VdW12
SciTegic.value.DoubleValue
5.977

@<SCITEGIC>MOL_PROPERTY
Bond
SciTegic.value.DoubleValue
0.185

@<SCITEGIC>MOL_PROPERTY
Angle
SciTegic.value.DoubleValue
0.935

@<SCITEGIC>MOL_PROPERTY
Pdih
SciTegic.value.DoubleValue
1.028

@<SCITEGIC>MOL_PROPERTY
Idih
SciTegic.value.DoubleValue
0.000

@<SCITEGIC>MOL_PROPERTY
Tether
SciTegic.value.DoubleValue
0.000

@<TRIPOS>MOLECULE
guest-s11_confgen4.mol2 : confsearch ligand conformer 124
          20          19           1
SMALL
USER_CHARGES
 
@<TRIPOS>ATOM
       1    N1      21.730606   20.034059   24.051101 N.4        1 MOL1        -0.5919
       2    H1      22.608604   19.529010   24.206287 H          1 MOL1         0.3682
       3    H2      21.833379   20.558208   23.177233 H          1 MOL1         0.3682
       4    H3      21.644748   20.722313   24.806246 H          1 MOL1         0.3682
       5    C1      20.540705   19.095404   24.005718 C.3        1 MOL1         0.0252
       6    H4      19.637983   19.697128   23.871728 H          1 MOL1         0.0971
       7    H5      20.473863   18.595296   24.975734 H          1 MOL1         0.0971
       8    C2      20.629594   18.035802   22.888744 C.3        1 MOL1        -0.1369
       9    H6      21.520869   17.415628   23.051996 H          1 MOL1         0.0997
      10    H7      19.772172   17.356362   22.976616 H          1 MOL1         0.0997
      11    C3      20.677399   18.631410   21.456977 C.3        1 MOL1        -0.1329
      12    H8      20.705834   17.806516   20.731759 H          1 MOL1         0.0997
      13    H9      21.620545   19.177702   21.321893 H          1 MOL1         0.0997
      14    C4      19.497149   19.572558   21.104436 C.3        1 MOL1        -0.1305
      15    H10     19.506893   20.455897   21.757209 H          1 MOL1         0.0997
      16    H11     19.643372   19.950860   20.082988 H          1 MOL1         0.0997
      17    C5      18.116841   18.882001   21.186423 C.3        1 MOL1        -0.2320
      18    H12     17.874635   18.586808   22.214917 H          1 MOL1         0.1008
      19    H13     17.325973   19.561401   20.843160 H          1 MOL1         0.1008
      20    H14     18.086047   17.984914   20.554563 H          1 MOL1         0.1008
@<TRIPOS>BOND
    1     1     2    1
    2     1     3    1
    3     1     4    1
    4     1     5    1
    5     5     6    1
    6     5     7    1
    7     5     8    1
    8     8     9    1
    9     8    10    1
   10     8    11    1
   11    11    12    1
   12    11    13    1
   13    11    14    1
   14    14    15    1
   15    14    16    1
   16    14    17    1
   17    17    18    1
   18    17    19    1
   19    17    20    1
@<TRIPOS>SUBSTRUCTURE
       1 MOL1            1 RESIDUE      1      MOL     
@<SCITEGIC>MOL_PROPERTY
VConf Rank
SciTegic.value.IntegerValue
124

@<SCITEGIC>MOL_PROPERTY
Conf_Id
SciTegic.value.IntegerValue
1

@<SCITEGIC>MOL_PROPERTY
Delta U+W
SciTegic.value.DoubleValue
1.032

@<SCITEGIC>MOL_PROPERTY
U+W
SciTegic.value.DoubleValue
-10.746

@<SCITEGIC>MOL_PROPERTY
Grad RMS
SciTegic.value.DoubleValue
0.000000

@<SCITEGIC>MOL_PROPERTY
U
SciTegic.value.DoubleValue
47.562

@<SCITEGIC>MOL_PROPERTY
W
SciTegic.value.DoubleValue
-58.308

@<SCITEGIC>MOL_PROPERTY
W(PB)
SciTegic.value.DoubleValue
-60.184

@<SCITEGIC>MOL_PROPERTY
W(SA)
SciTegic.value.DoubleValue
1.877

@<SCITEGIC>MOL_PROPERTY
Valence
SciTegic.value.DoubleValue
2.149

@<SCITEGIC>MOL_PROPERTY
Coulomb
SciTegic.value.DoubleValue
45.035

@<SCITEGIC>MOL_PROPERTY
VdW
SciTegic.value.DoubleValue
0.378

@<SCITEGIC>MOL_PROPERTY
VdW6
SciTegic.value.DoubleValue
-5.599

@<SCITEGIC>MOL_PROPERTY
VdW12
SciTegic.value.DoubleValue
5.978

@<SCITEGIC>MOL_PROPERTY
Bond
SciTegic.value.DoubleValue
0.185

@<SCITEGIC>MOL_PROPERTY
Angle
SciTegic.value.DoubleValue
0.935

@<SCITEGIC>MOL_PROPERTY
Pdih
SciTegic.value.DoubleValue
1.028

@<SCITEGIC>MOL_PROPERTY
Idih
SciTegic.value.DoubleValue
0.000

@<SCITEGIC>MOL_PROPERTY
Tether
SciTegic.value.DoubleValue
0.000

@<TRIPOS>MOLECULE
guest-s11_confgen4.mol2 : confsearch ligand conformer 125
          20          19           1
SMALL
USER_CHARGES
 
@<TRIPOS>ATOM
       1    N1      20.981653   19.008599   24.696452 N.4        1 MOL1        -0.5919
       2    H1      20.905087   18.119523   25.200210 H          1 MOL1         0.3682
       3    H2      21.797553   18.938949   24.081521 H          1 MOL1         0.3682
       4    H3      21.193497   19.729283   25.394365 H          1 MOL1         0.3682
       5    C1      19.717890   19.329150   23.921916 C.3        1 MOL1         0.0252
       6    H4      19.856520   20.297316   23.438224 H          1 MOL1         0.0971
       7    H5      18.905111   19.428818   24.646472 H          1 MOL1         0.0971
       8    C2      19.336919   18.256965   22.878847 C.3        1 MOL1        -0.1369
       9    H6      19.216847   17.299578   23.403072 H          1 MOL1         0.0997
      10    H7      18.351232   18.494008   22.457122 H          1 MOL1         0.0997
      11    C3      20.364607   18.074475   21.729553 C.3        1 MOL1        -0.1329
      12    H8      20.231134   17.065195   21.316076 H          1 MOL1         0.0997
      13    H9      21.390242   18.096724   22.119812 H          1 MOL1         0.0997
      14    C4      20.222529   19.077899   20.556102 C.3        1 MOL1        -0.1305
      15    H10     20.936011   18.792152   19.770457 H          1 MOL1         0.0997
      16    H11     19.224102   18.983658   20.106608 H          1 MOL1         0.0997
      17    C5      20.477283   20.553081   20.936720 C.3        1 MOL1        -0.2320
      18    H12     21.417740   20.665458   21.491401 H          1 MOL1         0.1008
      19    H13     20.544501   21.174099   20.034086 H          1 MOL1         0.1008
      20    H14     19.658828   20.955834   21.544976 H          1 MOL1         0.1008
@<TRIPOS>BOND
    1     1     2    1
    2     1     3    1
    3     1     4    1
    4     1     5    1
    5     5     6    1
    6     5     7    1
    7     5     8    1
    8     8     9    1
    9     8    10    1
   10     8    11    1
   11    11    12    1
   12    11    13    1
   13    11    14    1
   14    14    15    1
   15    14    16    1
   16    14    17    1
   17    17    18    1
   18    17    19    1
   19    17    20    1
@<TRIPOS>SUBSTRUCTURE
       1 MOL1            1 RESIDUE      1      MOL     
@<SCITEGIC>MOL_PROPERTY
VConf Rank
SciTegic.value.IntegerValue
125

@<SCITEGIC>MOL_PROPERTY
Conf_Id
SciTegic.value.IntegerValue
80

@<SCITEGIC>MOL_PROPERTY
Delta U+W
SciTegic.value.DoubleValue
2.920

@<SCITEGIC>MOL_PROPERTY
U+W
SciTegic.value.DoubleValue
-8.857

@<SCITEGIC>MOL_PROPERTY
Grad RMS
SciTegic.value.DoubleValue
0.000000

@<SCITEGIC>MOL_PROPERTY
U
SciTegic.value.DoubleValue
49.434

@<SCITEGIC>MOL_PROPERTY
W
SciTegic.value.DoubleValue
-58.292

@<SCITEGIC>MOL_PROPERTY
W(PB)
SciTegic.value.DoubleValue
-60.170

@<SCITEGIC>MOL_PROPERTY
W(SA)
SciTegic.value.DoubleValue
1.879

@<SCITEGIC>MOL_PROPERTY
Valence
SciTegic.value.DoubleValue
3.798

@<SCITEGIC>MOL_PROPERTY
Coulomb
SciTegic.value.DoubleValue
45.253

@<SCITEGIC>MOL_PROPERTY
VdW
SciTegic.value.DoubleValue
0.384

@<SCITEGIC>MOL_PROPERTY
VdW6
SciTegic.value.DoubleValue
-5.595

@<SCITEGIC>MOL_PROPERTY
VdW12
SciTegic.value.DoubleValue
5.979

@<SCITEGIC>MOL_PROPERTY
Bond
SciTegic.value.DoubleValue
0.198

@<SCITEGIC>MOL_PROPERTY
Angle
SciTegic.value.DoubleValue
1.368

@<SCITEGIC>MOL_PROPERTY
Pdih
SciTegic.value.DoubleValue
2.231

@<SCITEGIC>MOL_PROPERTY
Idih
SciTegic.value.DoubleValue
0.000

@<SCITEGIC>MOL_PROPERTY
Tether
SciTegic.value.DoubleValue
0.000

@<TRIPOS>MOLECULE
guest-s11_confgen4.mol2 : confsearch ligand conformer 126
          20          19           1
SMALL
USER_CHARGES
 
@<TRIPOS>ATOM
       1    N1      21.363652   20.637665   23.909625 N.4        1 MOL1        -0.5919
       2    H1      20.933862   21.530872   24.169533 H          1 MOL1         0.3682
       3    H2      22.161327   20.496670   24.538258 H          1 MOL1         0.3682
       4    H3      21.743329   20.747809   22.964955 H          1 MOL1         0.3682
       5    C1      20.374488   19.490948   23.989315 C.3        1 MOL1         0.0252
       6    H4      20.048439   19.410303   25.029850 H          1 MOL1         0.0971
       7    H5      20.903505   18.572144   23.731524 H          1 MOL1         0.0971
       8    C2      19.137147   19.670671   23.084099 C.3        1 MOL1        -0.1369
       9    H6      18.413723   18.871873   23.294329 H          1 MOL1         0.0997
      10    H7      18.640605   20.607901   23.368468 H          1 MOL1         0.0997
      11    C3      19.444793   19.707184   21.562802 C.3        1 MOL1        -0.1329
      12    H8      20.341786   20.307441   21.363260 H          1 MOL1         0.0997
      13    H9      18.621245   20.238338   21.065743 H          1 MOL1         0.0997
      14    C4      19.575350   18.318484   20.885669 C.3        1 MOL1        -0.1305
      15    H10     18.637933   17.757683   21.006225 H          1 MOL1         0.0997
      16    H11     19.698421   18.472855   19.804479 H          1 MOL1         0.0997
      17    C5      20.755339   17.462302   21.396067 C.3        1 MOL1        -0.2320
      18    H12     20.569140   17.089398   22.410130 H          1 MOL1         0.1008
      19    H13     20.898108   16.585749   20.750930 H          1 MOL1         0.1008
      20    H14     21.692338   18.033961   21.396619 H          1 MOL1         0.1008
@<TRIPOS>BOND
    1     1     2    1
    2     1     3    1
    3     1     4    1
    4     1     5    1
    5     5     6    1
    6     5     7    1
    7     5     8    1
    8     8     9    1
    9     8    10    1
   10     8    11    1
   11    11    12    1
   12    11    13    1
   13    11    14    1
   14    14    15    1
   15    14    16    1
   16    14    17    1
   17    17    18    1
   18    17    19    1
   19    17    20    1
@<TRIPOS>SUBSTRUCTURE
       1 MOL1            1 RESIDUE      1      MOL     
@<SCITEGIC>MOL_PROPERTY
VConf Rank
SciTegic.value.IntegerValue
126

@<SCITEGIC>MOL_PROPERTY
Conf_Id
SciTegic.value.IntegerValue
65

@<SCITEGIC>MOL_PROPERTY
Delta U+W
SciTegic.value.DoubleValue
2.949

@<SCITEGIC>MOL_PROPERTY
U+W
SciTegic.value.DoubleValue
-8.829

@<SCITEGIC>MOL_PROPERTY
Grad RMS
SciTegic.value.DoubleValue
0.000000

@<SCITEGIC>MOL_PROPERTY
U
SciTegic.value.DoubleValue
49.435

@<SCITEGIC>MOL_PROPERTY
W
SciTegic.value.DoubleValue
-58.263

@<SCITEGIC>MOL_PROPERTY
W(PB)
SciTegic.value.DoubleValue
-60.125

@<SCITEGIC>MOL_PROPERTY
W(SA)
SciTegic.value.DoubleValue
1.862

@<SCITEGIC>MOL_PROPERTY
Valence
SciTegic.value.DoubleValue
3.797

@<SCITEGIC>MOL_PROPERTY
Coulomb
SciTegic.value.DoubleValue
45.253

@<SCITEGIC>MOL_PROPERTY
VdW
SciTegic.value.DoubleValue
0.384

@<SCITEGIC>MOL_PROPERTY
VdW6
SciTegic.value.DoubleValue
-5.596

@<SCITEGIC>MOL_PROPERTY
VdW12
SciTegic.value.DoubleValue
5.980

@<SCITEGIC>MOL_PROPERTY
Bond
SciTegic.value.DoubleValue
0.198

@<SCITEGIC>MOL_PROPERTY
Angle
SciTegic.value.DoubleValue
1.369

@<SCITEGIC>MOL_PROPERTY
Pdih
SciTegic.value.DoubleValue
2.230

@<SCITEGIC>MOL_PROPERTY
Idih
SciTegic.value.DoubleValue
0.000

@<SCITEGIC>MOL_PROPERTY
Tether
SciTegic.value.DoubleValue
0.000

@<TRIPOS>MOLECULE
guest-s11_confgen4.mol2 : confsearch ligand conformer 127
          20          19           1
SMALL
USER_CHARGES
 
@<TRIPOS>ATOM
       1    N1      21.949343   19.542582   21.805975 N.4        1 MOL1        -0.5919
       2    H1      22.746557   20.143459   22.040663 H          1 MOL1         0.3682
       3    H2      21.754819   18.958673   22.625081 H          1 MOL1         0.3682
       4    H3      22.257550   18.919108   21.053184 H          1 MOL1         0.3682
       5    C1      20.732464   20.352597   21.402692 C.3        1 MOL1         0.0252
       6    H4      21.017391   20.942908   20.527552 H          1 MOL1         0.0971
       7    H5      20.487205   21.044240   22.213048 H          1 MOL1         0.0971
       8    C2      19.498081   19.496962   21.052555 C.3        1 MOL1        -0.1369
       9    H6      18.849664   20.097809   20.401135 H          1 MOL1         0.0997
      10    H7      19.804557   18.630788   20.451203 H          1 MOL1         0.0997
      11    C3      18.649415   19.032534   22.266612 C.3        1 MOL1        -0.1329
      12    H8      17.782075   18.486075   21.870850 H          1 MOL1         0.0997
      13    H9      18.232707   19.905418   22.788048 H          1 MOL1         0.0997
      14    C4      19.378794   18.108729   23.275130 C.3        1 MOL1        -0.1305
      15    H10     18.658649   17.372498   23.659336 H          1 MOL1         0.0997
      16    H11     20.156526   17.522982   22.766901 H          1 MOL1         0.0997
      17    C5      19.964183   18.873357   24.486114 C.3        1 MOL1        -0.2320
      18    H12     20.642838   19.678749   24.185504 H          1 MOL1         0.1008
      19    H13     19.160653   19.326019   25.081730 H          1 MOL1         0.1008
      20    H14     20.517955   18.190732   25.143793 H          1 MOL1         0.1008
@<TRIPOS>BOND
    1     1     2    1
    2     1     3    1
    3     1     4    1
    4     1     5    1
    5     5     6    1
    6     5     7    1
    7     5     8    1
    8     8     9    1
    9     8    10    1
   10     8    11    1
   11    11    12    1
   12    11    13    1
   13    11    14    1
   14    14    15    1
   15    14    16    1
   16    14    17    1
   17    17    18    1
   18    17    19    1
   19    17    20    1
@<TRIPOS>SUBSTRUCTURE
       1 MOL1            1 RESIDUE      1      MOL     
@<SCITEGIC>MOL_PROPERTY
VConf Rank
SciTegic.value.IntegerValue
127

@<SCITEGIC>MOL_PROPERTY
Conf_Id
SciTegic.value.IntegerValue
77

@<SCITEGIC>MOL_PROPERTY
Delta U+W
SciTegic.value.DoubleValue
5.366

@<SCITEGIC>MOL_PROPERTY
U+W
SciTegic.value.DoubleValue
-6.412

@<SCITEGIC>MOL_PROPERTY
Grad RMS
SciTegic.value.DoubleValue
0.000000

@<SCITEGIC>MOL_PROPERTY
U
SciTegic.value.DoubleValue
51.542

@<SCITEGIC>MOL_PROPERTY
W
SciTegic.value.DoubleValue
-57.954

@<SCITEGIC>MOL_PROPERTY
W(PB)
SciTegic.value.DoubleValue
-59.811

@<SCITEGIC>MOL_PROPERTY
W(SA)
SciTegic.value.DoubleValue
1.857

@<SCITEGIC>MOL_PROPERTY
Valence
SciTegic.value.DoubleValue
5.347

@<SCITEGIC>MOL_PROPERTY
Coulomb
SciTegic.value.DoubleValue
45.870

@<SCITEGIC>MOL_PROPERTY
VdW
SciTegic.value.DoubleValue
0.325

@<SCITEGIC>MOL_PROPERTY
VdW6
SciTegic.value.DoubleValue
-6.161

@<SCITEGIC>MOL_PROPERTY
VdW12
SciTegic.value.DoubleValue
6.486

@<SCITEGIC>MOL_PROPERTY
Bond
SciTegic.value.DoubleValue
0.201

@<SCITEGIC>MOL_PROPERTY
Angle
SciTegic.value.DoubleValue
1.484

@<SCITEGIC>MOL_PROPERTY
Pdih
SciTegic.value.DoubleValue
3.662

@<SCITEGIC>MOL_PROPERTY
Idih
SciTegic.value.DoubleValue
0.000

@<SCITEGIC>MOL_PROPERTY
Tether
SciTegic.value.DoubleValue
0.000

@<TRIPOS>MOLECULE
guest-s11_confgen4.mol2 : confsearch ligand conformer 128
          20          19           1
SMALL
USER_CHARGES
 
@<TRIPOS>ATOM
       1    N1      20.408592   17.080338   22.665373 N.4        1 MOL1        -0.5919
       2    H1      20.821503   16.595810   21.862165 H          1 MOL1         0.3682
       3    H2      21.109345   17.740047   23.016734 H          1 MOL1         0.3682
       4    H3      20.259347   16.374944   23.394639 H          1 MOL1         0.3682
       5    C1      19.120030   17.788165   22.293687 C.3        1 MOL1         0.0252
       6    H4      18.689951   18.230592   23.196179 H          1 MOL1         0.0971
       7    H5      18.429250   17.023254   21.928648 H          1 MOL1         0.0971
       8    C2      19.290437   18.871348   21.209212 C.3        1 MOL1        -0.1369
       9    H6      19.962846   18.506295   20.421551 H          1 MOL1         0.0997
      10    H7      18.315172   19.015435   20.725572 H          1 MOL1         0.0997
      11    C3      19.771516   20.254077   21.725437 C.3        1 MOL1        -0.1329
      12    H8      19.026238   20.676964   22.413326 H          1 MOL1         0.0997
      13    H9      19.795191   20.935855   20.863959 H          1 MOL1         0.0997
      14    C4      21.173470   20.267691   22.386390 C.3        1 MOL1        -0.1305
      15    H10     21.807930   19.479989   21.958313 H          1 MOL1         0.0997
      16    H11     21.669758   21.215648   22.134728 H          1 MOL1         0.0997
      17    C5      21.119258   20.157795   23.928728 C.3        1 MOL1        -0.2320
      18    H12     22.132352   20.115221   24.349452 H          1 MOL1         0.1008
      19    H13     20.619145   21.034495   24.360707 H          1 MOL1         0.1008
      20    H14     20.574543   19.269907   24.267157 H          1 MOL1         0.1008
@<TRIPOS>BOND
    1     1     2    1
    2     1     3    1
    3     1     4    1
    4     1     5    1
    5     5     6    1
    6     5     7    1
    7     5     8    1
    8     8     9    1
    9     8    10    1
   10     8    11    1
   11    11    12    1
   12    11    13    1
   13    11    14    1
   14    14    15    1
   15    14    16    1
   16    14    17    1
   17    17    18    1
   18    17    19    1
   19    17    20    1
@<TRIPOS>SUBSTRUCTURE
       1 MOL1            1 RESIDUE      1      MOL     
@<SCITEGIC>MOL_PROPERTY
VConf Rank
SciTegic.value.IntegerValue
128

@<SCITEGIC>MOL_PROPERTY
Conf_Id
SciTegic.value.IntegerValue
67

@<SCITEGIC>MOL_PROPERTY
Delta U+W
SciTegic.value.DoubleValue
5.353

@<SCITEGIC>MOL_PROPERTY
U+W
SciTegic.value.DoubleValue
-6.425

@<SCITEGIC>MOL_PROPERTY
Grad RMS
SciTegic.value.DoubleValue
0.000000

@<SCITEGIC>MOL_PROPERTY
U
SciTegic.value.DoubleValue
51.541

@<SCITEGIC>MOL_PROPERTY
W
SciTegic.value.DoubleValue
-57.966

@<SCITEGIC>MOL_PROPERTY
W(PB)
SciTegic.value.DoubleValue
-59.821

@<SCITEGIC>MOL_PROPERTY
W(SA)
SciTegic.value.DoubleValue
1.855

@<SCITEGIC>MOL_PROPERTY
Valence
SciTegic.value.DoubleValue
5.347

@<SCITEGIC>MOL_PROPERTY
Coulomb
SciTegic.value.DoubleValue
45.870

@<SCITEGIC>MOL_PROPERTY
VdW
SciTegic.value.DoubleValue
0.325

@<SCITEGIC>MOL_PROPERTY
VdW6
SciTegic.value.DoubleValue
-6.161

@<SCITEGIC>MOL_PROPERTY
VdW12
SciTegic.value.DoubleValue
6.486

@<SCITEGIC>MOL_PROPERTY
Bond
SciTegic.value.DoubleValue
0.201

@<SCITEGIC>MOL_PROPERTY
Angle
SciTegic.value.DoubleValue
1.485

@<SCITEGIC>MOL_PROPERTY
Pdih
SciTegic.value.DoubleValue
3.662

@<SCITEGIC>MOL_PROPERTY
Idih
SciTegic.value.DoubleValue
0.000

@<SCITEGIC>MOL_PROPERTY
Tether
SciTegic.value.DoubleValue
0.000

@<TRIPOS>MOLECULE
guest-s11_confgen4.mol2 : confsearch ligand conformer 129
          20          19           1
SMALL
USER_CHARGES
 
@<TRIPOS>ATOM
       1    N1      23.085449   20.385698   22.844032 N.4        1 MOL1        -0.5919
       2    H1      23.383786   20.349119   21.864213 H          1 MOL1         0.3682
       3    H2      23.494760   21.234854   23.247762 H          1 MOL1         0.3682
       4    H3      23.520957   19.590184   23.321397 H          1 MOL1         0.3682
       5    C1      21.576031   20.369671   22.977773 C.3        1 MOL1         0.0252
       6    H4      21.183145   21.257240   22.474405 H          1 MOL1         0.0971
       7    H5      21.330603   20.441185   24.040866 H          1 MOL1         0.0971
       8    C2      20.929214   19.106921   22.380817 C.3        1 MOL1        -0.1369
       9    H6      21.191441   19.030633   21.317104 H          1 MOL1         0.0997
      10    H7      21.338385   18.217374   22.878163 H          1 MOL1         0.0997
      11    C3      19.392454   19.130097   22.537542 C.3        1 MOL1        -0.1329
      12    H8      18.986979   20.024044   22.043338 H          1 MOL1         0.0997
      13    H9      19.133735   19.211673   23.602531 H          1 MOL1         0.0997
      14    C4      18.732007   17.866751   21.941469 C.3        1 MOL1        -0.1305
      15    H10     18.986576   17.782403   20.875576 H          1 MOL1         0.0997
      16    H11     19.133227   16.970153   22.434604 H          1 MOL1         0.0997
      17    C5      17.196753   17.894336   22.100250 C.3        1 MOL1        -0.2320
      18    H12     16.762115   18.762372   21.587591 H          1 MOL1         0.1008
      19    H13     16.746273   16.989841   21.671298 H          1 MOL1         0.1008
      20    H14     16.909901   17.943639   23.158786 H          1 MOL1         0.1008
@<TRIPOS>BOND
    1     1     2    1
    2     1     3    1
    3     1     4    1
    4     1     5    1
    5     5     6    1
    6     5     7    1
    7     5     8    1
    8     8     9    1
    9     8    10    1
   10     8    11    1
   11    11    12    1
   12    11    13    1
   13    11    14    1
   14    14    15    1
   15    14    16    1
   16    14    17    1
   17    17    18    1
   18    17    19    1
   19    17    20    1
@<TRIPOS>SUBSTRUCTURE
       1 MOL1            1 RESIDUE      1      MOL     
@<SCITEGIC>MOL_PROPERTY
VConf Rank
SciTegic.value.IntegerValue
129

@<SCITEGIC>MOL_PROPERTY
Conf_Id
SciTegic.value.IntegerValue
72

@<SCITEGIC>MOL_PROPERTY
Delta U+W
SciTegic.value.DoubleValue
0.000

@<SCITEGIC>MOL_PROPERTY
U+W
SciTegic.value.DoubleValue
-11.778

@<SCITEGIC>MOL_PROPERTY
Grad RMS
SciTegic.value.DoubleValue
0.000000

@<SCITEGIC>MOL_PROPERTY
U
SciTegic.value.DoubleValue
45.772

@<SCITEGIC>MOL_PROPERTY
W
SciTegic.value.DoubleValue
-57.550

@<SCITEGIC>MOL_PROPERTY
W(PB)
SciTegic.value.DoubleValue
-59.511

@<SCITEGIC>MOL_PROPERTY
W(SA)
SciTegic.value.DoubleValue
1.961

@<SCITEGIC>MOL_PROPERTY
Valence
SciTegic.value.DoubleValue
1.299

@<SCITEGIC>MOL_PROPERTY
Coulomb
SciTegic.value.DoubleValue
44.177

@<SCITEGIC>MOL_PROPERTY
VdW
SciTegic.value.DoubleValue
0.297

@<SCITEGIC>MOL_PROPERTY
VdW6
SciTegic.value.DoubleValue
-3.490

@<SCITEGIC>MOL_PROPERTY
VdW12
SciTegic.value.DoubleValue
3.786

@<SCITEGIC>MOL_PROPERTY
Bond
SciTegic.value.DoubleValue
0.096

@<SCITEGIC>MOL_PROPERTY
Angle
SciTegic.value.DoubleValue
0.381

@<SCITEGIC>MOL_PROPERTY
Pdih
SciTegic.value.DoubleValue
0.822

@<SCITEGIC>MOL_PROPERTY
Idih
SciTegic.value.DoubleValue
0.000

@<SCITEGIC>MOL_PROPERTY
Tether
SciTegic.value.DoubleValue
0.000

@<TRIPOS>MOLECULE
guest-s11_confgen4.mol2 : confsearch ligand conformer 130
          20          19           1
SMALL
USER_CHARGES
 
@<TRIPOS>ATOM
       1    N1      18.711399   18.477853   25.051897 N.4        1 MOL1        -0.5919
       2    H1      18.552944   19.467843   25.264376 H          1 MOL1         0.3682
       3    H2      17.844543   18.114915   24.642995 H          1 MOL1         0.3682
       4    H3      18.840286   17.998266   25.949096 H          1 MOL1         0.3682
       5    C1      19.898722   18.278756   24.131463 C.3        1 MOL1         0.0252
       6    H4      20.026734   17.204431   23.973564 H          1 MOL1         0.0971
       7    H5      20.788292   18.659154   24.640842 H          1 MOL1         0.0971
       8    C2      19.737436   18.986055   22.773897 C.3        1 MOL1        -0.1369
       9    H6      18.834391   18.612640   22.273016 H          1 MOL1         0.0997
      10    H7      19.592028   20.060097   22.945232 H          1 MOL1         0.0997
      11    C3      20.969373   18.754271   21.867400 C.3        1 MOL1        -0.1329
      12    H8      21.143813   17.673583   21.770320 H          1 MOL1         0.0997
      13    H9      21.866080   19.169406   22.348198 H          1 MOL1         0.0997
      14    C4      20.815809   19.357532   20.449950 C.3        1 MOL1        -0.1305
      15    H10     21.682647   19.058953   19.843830 H          1 MOL1         0.0997
      16    H11     19.933356   18.927051   19.956150 H          1 MOL1         0.0997
      17    C5      20.712971   20.899913   20.445961 C.3        1 MOL1        -0.2320
      18    H12     21.570276   21.354487   20.959190 H          1 MOL1         0.1008
      19    H13     20.697940   21.281151   19.416697 H          1 MOL1         0.1008
      20    H14     19.794991   21.244540   20.937862 H          1 MOL1         0.1008
@<TRIPOS>BOND
    1     1     2    1
    2     1     3    1
    3     1     4    1
    4     1     5    1
    5     5     6    1
    6     5     7    1
    7     5     8    1
    8     8     9    1
    9     8    10    1
   10     8    11    1
   11    11    12    1
   12    11    13    1
   13    11    14    1
   14    14    15    1
   15    14    16    1
   16    14    17    1
   17    17    18    1
   18    17    19    1
   19    17    20    1
@<TRIPOS>SUBSTRUCTURE
       1 MOL1            1 RESIDUE      1      MOL     
@<SCITEGIC>MOL_PROPERTY
VConf Rank
SciTegic.value.IntegerValue
130

@<SCITEGIC>MOL_PROPERTY
Conf_Id
SciTegic.value.IntegerValue
42

@<SCITEGIC>MOL_PROPERTY
Delta U+W
SciTegic.value.DoubleValue
0.508

@<SCITEGIC>MOL_PROPERTY
U+W
SciTegic.value.DoubleValue
-11.270

@<SCITEGIC>MOL_PROPERTY
Grad RMS
SciTegic.value.DoubleValue
0.000000

@<SCITEGIC>MOL_PROPERTY
U
SciTegic.value.DoubleValue
46.486

@<SCITEGIC>MOL_PROPERTY
W
SciTegic.value.DoubleValue
-57.756

@<SCITEGIC>MOL_PROPERTY
W(PB)
SciTegic.value.DoubleValue
-59.705

@<SCITEGIC>MOL_PROPERTY
W(SA)
SciTegic.value.DoubleValue
1.949

@<SCITEGIC>MOL_PROPERTY
Valence
SciTegic.value.DoubleValue
1.806

@<SCITEGIC>MOL_PROPERTY
Coulomb
SciTegic.value.DoubleValue
44.248

@<SCITEGIC>MOL_PROPERTY
VdW
SciTegic.value.DoubleValue
0.433

@<SCITEGIC>MOL_PROPERTY
VdW6
SciTegic.value.DoubleValue
-4.089

@<SCITEGIC>MOL_PROPERTY
VdW12
SciTegic.value.DoubleValue
4.522

@<SCITEGIC>MOL_PROPERTY
Bond
SciTegic.value.DoubleValue
0.131

@<SCITEGIC>MOL_PROPERTY
Angle
SciTegic.value.DoubleValue
0.628

@<SCITEGIC>MOL_PROPERTY
Pdih
SciTegic.value.DoubleValue
1.047

@<SCITEGIC>MOL_PROPERTY
Idih
SciTegic.value.DoubleValue
0.000

@<SCITEGIC>MOL_PROPERTY
Tether
SciTegic.value.DoubleValue
0.000

@<TRIPOS>MOLECULE
guest-s11_confgen4.mol2 : confsearch ligand conformer 131
          20          19           1
SMALL
USER_CHARGES
 
@<TRIPOS>ATOM
       1    N1      21.661000   17.747294   24.729574 N.4        1 MOL1        -0.5919
       2    H1      21.408255   18.411999   25.467579 H          1 MOL1         0.3682
       3    H2      20.982020   16.980640   24.769092 H          1 MOL1         0.3682
       4    H3      22.571632   17.351267   24.985489 H          1 MOL1         0.3682
       5    C1      21.696145   18.403372   23.363957 C.3        1 MOL1         0.0252
       6    H4      22.000147   17.647992   22.634237 H          1 MOL1         0.0971
       7    H5      22.458985   19.186385   23.385418 H          1 MOL1         0.0971
       8    C2      20.343560   19.009429   22.948650 C.3        1 MOL1        -0.1369
       9    H6      19.582579   18.218876   22.947814 H          1 MOL1         0.0997
      10    H7      20.034530   19.755887   23.692366 H          1 MOL1         0.0997
      11    C3      20.426309   19.669199   21.551871 C.3        1 MOL1        -0.1329
      12    H8      20.690557   18.912474   20.800122 H          1 MOL1         0.0997
      13    H9      21.243982   20.403471   21.550952 H          1 MOL1         0.0997
      14    C4      19.120802   20.385503   21.128518 C.3        1 MOL1        -0.1305
      15    H10     18.865593   21.159781   21.865566 H          1 MOL1         0.0997
      16    H11     19.298851   20.911600   20.180120 H          1 MOL1         0.0997
      17    C5      17.923205   19.424951   20.947866 C.3        1 MOL1        -0.2320
      18    H12     17.628627   18.963794   21.898645 H          1 MOL1         0.1008
      19    H13     17.050851   19.967320   20.560845 H          1 MOL1         0.1008
      20    H14     18.162710   18.624179   20.236238 H          1 MOL1         0.1008
@<TRIPOS>BOND
    1     1     2    1
    2     1     3    1
    3     1     4    1
    4     1     5    1
    5     5     6    1
    6     5     7    1
    7     5     8    1
    8     8     9    1
    9     8    10    1
   10     8    11    1
   11    11    12    1
   12    11    13    1
   13    11    14    1
   14    14    15    1
   15    14    16    1
   16    14    17    1
   17    17    18    1
   18    17    19    1
   19    17    20    1
@<TRIPOS>SUBSTRUCTURE
       1 MOL1            1 RESIDUE      1      MOL     
@<SCITEGIC>MOL_PROPERTY
VConf Rank
SciTegic.value.IntegerValue
131

@<SCITEGIC>MOL_PROPERTY
Conf_Id
SciTegic.value.IntegerValue
41

@<SCITEGIC>MOL_PROPERTY
Delta U+W
SciTegic.value.DoubleValue
0.515

@<SCITEGIC>MOL_PROPERTY
U+W
SciTegic.value.DoubleValue
-11.263

@<SCITEGIC>MOL_PROPERTY
Grad RMS
SciTegic.value.DoubleValue
0.000000

@<SCITEGIC>MOL_PROPERTY
U
SciTegic.value.DoubleValue
46.486

@<SCITEGIC>MOL_PROPERTY
W
SciTegic.value.DoubleValue
-57.749

@<SCITEGIC>MOL_PROPERTY
W(PB)
SciTegic.value.DoubleValue
-59.685

@<SCITEGIC>MOL_PROPERTY
W(SA)
SciTegic.value.DoubleValue
1.936

@<SCITEGIC>MOL_PROPERTY
Valence
SciTegic.value.DoubleValue
1.806

@<SCITEGIC>MOL_PROPERTY
Coulomb
SciTegic.value.DoubleValue
44.248

@<SCITEGIC>MOL_PROPERTY
VdW
SciTegic.value.DoubleValue
0.433

@<SCITEGIC>MOL_PROPERTY
VdW6
SciTegic.value.DoubleValue
-4.089

@<SCITEGIC>MOL_PROPERTY
VdW12
SciTegic.value.DoubleValue
4.522

@<SCITEGIC>MOL_PROPERTY
Bond
SciTegic.value.DoubleValue
0.131

@<SCITEGIC>MOL_PROPERTY
Angle
SciTegic.value.DoubleValue
0.628

@<SCITEGIC>MOL_PROPERTY
Pdih
SciTegic.value.DoubleValue
1.047

@<SCITEGIC>MOL_PROPERTY
Idih
SciTegic.value.DoubleValue
0.000

@<SCITEGIC>MOL_PROPERTY
Tether
SciTegic.value.DoubleValue
0.000

@<TRIPOS>MOLECULE
guest-s11_confgen4.mol2 : confsearch ligand conformer 132
          20          19           1
SMALL
USER_CHARGES
 
@<TRIPOS>ATOM
       1    N1      22.190477   19.855164   20.746925 N.4        1 MOL1        -0.5919
       2    H1      22.529703   20.262842   19.869300 H          1 MOL1         0.3682
       3    H2      22.213359   20.599690   21.449845 H          1 MOL1         0.3682
       4    H3      22.876078   19.148672   21.031556 H          1 MOL1         0.3682
       5    C1      20.801789   19.265117   20.593449 C.3        1 MOL1         0.0252
       6    H4      20.847885   18.513701   19.800449 H          1 MOL1         0.0971
       7    H5      20.127834   20.061981   20.267515 H          1 MOL1         0.0971
       8    C2      20.253365   18.615518   21.879186 C.3        1 MOL1        -0.1369
       9    H6      19.306090   18.120931   21.630868 H          1 MOL1         0.0997
      10    H7      20.941072   17.827574   22.213689 H          1 MOL1         0.0997
      11    C3      20.025732   19.641426   23.017963 C.3        1 MOL1        -0.1329
      12    H8      19.319215   20.413907   22.683935 H          1 MOL1         0.0997
      13    H9      20.968751   20.159342   23.237247 H          1 MOL1         0.0997
      14    C4      19.509632   19.001710   24.329978 C.3        1 MOL1        -0.1305
      15    H10     20.219898   18.237594   24.675685 H          1 MOL1         0.0997
      16    H11     19.485024   19.773564   25.112011 H          1 MOL1         0.0997
      17    C5      18.099789   18.380934   24.200585 C.3        1 MOL1        -0.2320
      18    H12     18.098025   17.519968   23.520876 H          1 MOL1         0.1008
      19    H13     17.744202   18.029076   25.177673 H          1 MOL1         0.1008
      20    H14     17.376611   19.117040   23.826196 H          1 MOL1         0.1008
@<TRIPOS>BOND
    1     1     2    1
    2     1     3    1
    3     1     4    1
    4     1     5    1
    5     5     6    1
    6     5     7    1
    7     5     8    1
    8     8     9    1
    9     8    10    1
   10     8    11    1
   11    11    12    1
   12    11    13    1
   13    11    14    1
   14    14    15    1
   15    14    16    1
   16    14    17    1
   17    17    18    1
   18    17    19    1
   19    17    20    1
@<TRIPOS>SUBSTRUCTURE
       1 MOL1            1 RESIDUE      1      MOL     
@<SCITEGIC>MOL_PROPERTY
VConf Rank
SciTegic.value.IntegerValue
132

@<SCITEGIC>MOL_PROPERTY
Conf_Id
SciTegic.value.IntegerValue
33

@<SCITEGIC>MOL_PROPERTY
Delta U+W
SciTegic.value.DoubleValue
0.703

@<SCITEGIC>MOL_PROPERTY
U+W
SciTegic.value.DoubleValue
-11.075

@<SCITEGIC>MOL_PROPERTY
Grad RMS
SciTegic.value.DoubleValue
0.000000

@<SCITEGIC>MOL_PROPERTY
U
SciTegic.value.DoubleValue
47.080

@<SCITEGIC>MOL_PROPERTY
W
SciTegic.value.DoubleValue
-58.154

@<SCITEGIC>MOL_PROPERTY
W(PB)
SciTegic.value.DoubleValue
-60.053

@<SCITEGIC>MOL_PROPERTY
W(SA)
SciTegic.value.DoubleValue
1.899

@<SCITEGIC>MOL_PROPERTY
Valence
SciTegic.value.DoubleValue
1.943

@<SCITEGIC>MOL_PROPERTY
Coulomb
SciTegic.value.DoubleValue
44.572

@<SCITEGIC>MOL_PROPERTY
VdW
SciTegic.value.DoubleValue
0.565

@<SCITEGIC>MOL_PROPERTY
VdW6
SciTegic.value.DoubleValue
-4.575

@<SCITEGIC>MOL_PROPERTY
VdW12
SciTegic.value.DoubleValue
5.139

@<SCITEGIC>MOL_PROPERTY
Bond
SciTegic.value.DoubleValue
0.158

@<SCITEGIC>MOL_PROPERTY
Angle
SciTegic.value.DoubleValue
0.700

@<SCITEGIC>MOL_PROPERTY
Pdih
SciTegic.value.DoubleValue
1.085

@<SCITEGIC>MOL_PROPERTY
Idih
SciTegic.value.DoubleValue
0.000

@<SCITEGIC>MOL_PROPERTY
Tether
SciTegic.value.DoubleValue
0.000

@<TRIPOS>MOLECULE
guest-s11_confgen4.mol2 : confsearch ligand conformer 133
          20          19           1
SMALL
USER_CHARGES
 
@<TRIPOS>ATOM
       1    N1      19.872242   19.392629   19.723697 N.4        1 MOL1        -0.5919
       2    H1      19.581000   19.036975   18.807080 H          1 MOL1         0.3682
       3    H2      19.792645   20.413621   19.685852 H          1 MOL1         0.3682
       4    H3      20.866555   19.170132   19.827509 H          1 MOL1         0.3682
       5    C1      19.040686   18.802407   20.846334 C.3        1 MOL1         0.0252
       6    H4      19.151325   17.715078   20.816028 H          1 MOL1         0.0971
       7    H5      17.993518   19.043060   20.643538 H          1 MOL1         0.0971
       8    C2      19.421056   19.323632   22.246157 C.3        1 MOL1        -0.1369
       9    H6      19.325718   20.417301   22.268306 H          1 MOL1         0.0997
      10    H7      18.690429   18.930131   22.963757 H          1 MOL1         0.0997
      11    C3      20.851053   18.905698   22.672254 C.3        1 MOL1        -0.1329
      12    H8      21.574584   19.270867   21.931468 H          1 MOL1         0.0997
      13    H9      20.932241   17.809857   22.669556 H          1 MOL1         0.0997
      14    C4      21.264678   19.451045   24.060954 C.3        1 MOL1        -0.1305
      15    H10     22.322328   19.207406   24.234037 H          1 MOL1         0.0997
      16    H11     21.198237   20.548058   24.064598 H          1 MOL1         0.0997
      17    C5      20.425678   18.875167   25.224659 C.3        1 MOL1        -0.2320
      18    H12     20.450052   17.777710   25.224232 H          1 MOL1         0.1008
      19    H13     20.820938   19.218588   26.189428 H          1 MOL1         0.1008
      20    H14     19.378487   19.196375   25.165609 H          1 MOL1         0.1008
@<TRIPOS>BOND
    1     1     2    1
    2     1     3    1
    3     1     4    1
    4     1     5    1
    5     5     6    1
    6     5     7    1
    7     5     8    1
    8     8     9    1
    9     8    10    1
   10     8    11    1
   11    11    12    1
   12    11    13    1
   13    11    14    1
   14    14    15    1
   15    14    16    1
   16    14    17    1
   17    17    18    1
   18    17    19    1
   19    17    20    1
@<TRIPOS>SUBSTRUCTURE
       1 MOL1            1 RESIDUE      1      MOL     
@<SCITEGIC>MOL_PROPERTY
VConf Rank
SciTegic.value.IntegerValue
133

@<SCITEGIC>MOL_PROPERTY
Conf_Id
SciTegic.value.IntegerValue
24

@<SCITEGIC>MOL_PROPERTY
Delta U+W
SciTegic.value.DoubleValue
0.847

@<SCITEGIC>MOL_PROPERTY
U+W
SciTegic.value.DoubleValue
-10.931

@<SCITEGIC>MOL_PROPERTY
Grad RMS
SciTegic.value.DoubleValue
0.000000

@<SCITEGIC>MOL_PROPERTY
U
SciTegic.value.DoubleValue
47.080

@<SCITEGIC>MOL_PROPERTY
W
SciTegic.value.DoubleValue
-58.011

@<SCITEGIC>MOL_PROPERTY
W(PB)
SciTegic.value.DoubleValue
-59.914

@<SCITEGIC>MOL_PROPERTY
W(SA)
SciTegic.value.DoubleValue
1.903

@<SCITEGIC>MOL_PROPERTY
Valence
SciTegic.value.DoubleValue
1.943

@<SCITEGIC>MOL_PROPERTY
Coulomb
SciTegic.value.DoubleValue
44.572

@<SCITEGIC>MOL_PROPERTY
VdW
SciTegic.value.DoubleValue
0.565

@<SCITEGIC>MOL_PROPERTY
VdW6
SciTegic.value.DoubleValue
-4.575

@<SCITEGIC>MOL_PROPERTY
VdW12
SciTegic.value.DoubleValue
5.140

@<SCITEGIC>MOL_PROPERTY
Bond
SciTegic.value.DoubleValue
0.158

@<SCITEGIC>MOL_PROPERTY
Angle
SciTegic.value.DoubleValue
0.700

@<SCITEGIC>MOL_PROPERTY
Pdih
SciTegic.value.DoubleValue
1.085

@<SCITEGIC>MOL_PROPERTY
Idih
SciTegic.value.DoubleValue
0.000

@<SCITEGIC>MOL_PROPERTY
Tether
SciTegic.value.DoubleValue
0.000

@<TRIPOS>MOLECULE
guest-s11_confgen4.mol2 : confsearch ligand conformer 134
          20          19           1
SMALL
USER_CHARGES
 
@<TRIPOS>ATOM
       1    N1      20.509677   16.603892   21.706344 N.4        1 MOL1        -0.5919
       2    H1      19.975609   16.086869   20.999981 H          1 MOL1         0.3682
       3    H2      21.415120   16.833892   21.285044 H          1 MOL1         0.3682
       4    H3      20.692373   15.952399   22.476077 H          1 MOL1         0.3682
       5    C1      19.772203   17.841812   22.175400 C.3        1 MOL1         0.0252
       6    H4      18.808488   17.526566   22.584366 H          1 MOL1         0.0971
       7    H5      19.585621   18.472535   21.302269 H          1 MOL1         0.0971
       8    C2      20.548532   18.642691   23.237724 C.3        1 MOL1        -0.1369
       9    H6      20.766764   17.988316   24.092082 H          1 MOL1         0.0997
      10    H7      21.519971   18.951847   22.831296 H          1 MOL1         0.0997
      11    C3      19.767554   19.881147   23.743981 C.3        1 MOL1        -0.1329
      12    H8      20.370879   20.396524   24.504013 H          1 MOL1         0.0997
      13    H9      18.857794   19.542844   24.259130 H          1 MOL1         0.0997
      14    C4      19.368381   20.894595   22.640891 C.3        1 MOL1        -0.1305
      15    H10     18.677667   20.425918   21.926725 H          1 MOL1         0.0997
      16    H11     18.807225   21.716604   23.107031 H          1 MOL1         0.0997
      17    C5      20.578467   21.485512   21.882262 C.3        1 MOL1        -0.2320
      18    H12     20.249835   22.262547   21.180037 H          1 MOL1         0.1008
      19    H13     21.295197   21.942474   22.576856 H          1 MOL1         0.1008
      20    H14     21.103926   20.717309   21.301406 H          1 MOL1         0.1008
@<TRIPOS>BOND
    1     1     2    1
    2     1     3    1
    3     1     4    1
    4     1     5    1
    5     5     6    1
    6     5     7    1
    7     5     8    1
    8     8     9    1
    9     8    10    1
   10     8    11    1
   11    11    12    1
   12    11    13    1
   13    11    14    1
   14    14    15    1
   15    14    16    1
   16    14    17    1
   17    17    18    1
   18    17    19    1
   19    17    20    1
@<TRIPOS>SUBSTRUCTURE
       1 MOL1            1 RESIDUE      1      MOL     
@<SCITEGIC>MOL_PROPERTY
VConf Rank
SciTegic.value.IntegerValue
134

@<SCITEGIC>MOL_PROPERTY
Conf_Id
SciTegic.value.IntegerValue
64

@<SCITEGIC>MOL_PROPERTY
Delta U+W
SciTegic.value.DoubleValue
0.707

@<SCITEGIC>MOL_PROPERTY
U+W
SciTegic.value.DoubleValue
-11.070

@<SCITEGIC>MOL_PROPERTY
Grad RMS
SciTegic.value.DoubleValue
0.000000

@<SCITEGIC>MOL_PROPERTY
U
SciTegic.value.DoubleValue
47.077

@<SCITEGIC>MOL_PROPERTY
W
SciTegic.value.DoubleValue
-58.148

@<SCITEGIC>MOL_PROPERTY
W(PB)
SciTegic.value.DoubleValue
-60.054

@<SCITEGIC>MOL_PROPERTY
W(SA)
SciTegic.value.DoubleValue
1.906

@<SCITEGIC>MOL_PROPERTY
Valence
SciTegic.value.DoubleValue
2.039

@<SCITEGIC>MOL_PROPERTY
Coulomb
SciTegic.value.DoubleValue
44.655

@<SCITEGIC>MOL_PROPERTY
VdW
SciTegic.value.DoubleValue
0.383

@<SCITEGIC>MOL_PROPERTY
VdW6
SciTegic.value.DoubleValue
-4.912

@<SCITEGIC>MOL_PROPERTY
VdW12
SciTegic.value.DoubleValue
5.295

@<SCITEGIC>MOL_PROPERTY
Bond
SciTegic.value.DoubleValue
0.159

@<SCITEGIC>MOL_PROPERTY
Angle
SciTegic.value.DoubleValue
0.856

@<SCITEGIC>MOL_PROPERTY
Pdih
SciTegic.value.DoubleValue
1.024

@<SCITEGIC>MOL_PROPERTY
Idih
SciTegic.value.DoubleValue
0.000

@<SCITEGIC>MOL_PROPERTY
Tether
SciTegic.value.DoubleValue
0.000

@<TRIPOS>MOLECULE
guest-s11_confgen4.mol2 : confsearch ligand conformer 135
          20          19           1
SMALL
USER_CHARGES
 
@<TRIPOS>ATOM
       1    N1      21.908130   17.033079   21.780456 N.4        1 MOL1        -0.5919
       2    H1      22.101156   16.974771   20.775643 H          1 MOL1         0.3682
       3    H2      22.702829   17.514853   22.212392 H          1 MOL1         0.3682
       4    H3      21.911380   16.072689   22.139801 H          1 MOL1         0.3682
       5    C1      20.596415   17.736455   22.065052 C.3        1 MOL1         0.0252
       6    H4      20.442295   17.734572   23.147285 H          1 MOL1         0.0971
       7    H5      19.794004   17.155658   21.602245 H          1 MOL1         0.0971
       8    C2      20.558732   19.183330   21.538031 C.3        1 MOL1        -0.1369
       9    H6      21.369524   19.764865   21.995074 H          1 MOL1         0.0997
      10    H7      20.755783   19.177155   20.457803 H          1 MOL1         0.0997
      11    C3      19.198384   19.879164   21.793502 C.3        1 MOL1        -0.1329
      12    H8      18.417467   19.354818   21.225414 H          1 MOL1         0.0997
      13    H9      19.236962   20.898016   21.383973 H          1 MOL1         0.0997
      14    C4      18.771435   19.947125   23.282233 C.3        1 MOL1        -0.1305
      15    H10     17.791038   20.440060   23.343217 H          1 MOL1         0.0997
      16    H11     18.624246   18.934383   23.681564 H          1 MOL1         0.0997
      17    C5      19.771925   20.717120   24.173938 C.3        1 MOL1        -0.2320
      18    H12     19.952322   21.727199   23.783845 H          1 MOL1         0.1008
      19    H13     19.379780   20.816680   25.194337 H          1 MOL1         0.1008
      20    H14     20.735410   20.196640   24.240515 H          1 MOL1         0.1008
@<TRIPOS>BOND
    1     1     2    1
    2     1     3    1
    3     1     4    1
    4     1     5    1
    5     5     6    1
    6     5     7    1
    7     5     8    1
    8     8     9    1
    9     8    10    1
   10     8    11    1
   11    11    12    1
   12    11    13    1
   13    11    14    1
   14    14    15    1
   15    14    16    1
   16    14    17    1
   17    17    18    1
   18    17    19    1
   19    17    20    1
@<TRIPOS>SUBSTRUCTURE
       1 MOL1            1 RESIDUE      1      MOL     
@<SCITEGIC>MOL_PROPERTY
VConf Rank
SciTegic.value.IntegerValue
135

@<SCITEGIC>MOL_PROPERTY
Conf_Id
SciTegic.value.IntegerValue
22

@<SCITEGIC>MOL_PROPERTY
Delta U+W
SciTegic.value.DoubleValue
0.731

@<SCITEGIC>MOL_PROPERTY
U+W
SciTegic.value.DoubleValue
-11.047

@<SCITEGIC>MOL_PROPERTY
Grad RMS
SciTegic.value.DoubleValue
0.000000

@<SCITEGIC>MOL_PROPERTY
U
SciTegic.value.DoubleValue
47.078

@<SCITEGIC>MOL_PROPERTY
W
SciTegic.value.DoubleValue
-58.125

@<SCITEGIC>MOL_PROPERTY
W(PB)
SciTegic.value.DoubleValue
-60.031

@<SCITEGIC>MOL_PROPERTY
W(SA)
SciTegic.value.DoubleValue
1.906

@<SCITEGIC>MOL_PROPERTY
Valence
SciTegic.value.DoubleValue
2.039

@<SCITEGIC>MOL_PROPERTY
Coulomb
SciTegic.value.DoubleValue
44.655

@<SCITEGIC>MOL_PROPERTY
VdW
SciTegic.value.DoubleValue
0.383

@<SCITEGIC>MOL_PROPERTY
VdW6
SciTegic.value.DoubleValue
-4.913

@<SCITEGIC>MOL_PROPERTY
VdW12
SciTegic.value.DoubleValue
5.296

@<SCITEGIC>MOL_PROPERTY
Bond
SciTegic.value.DoubleValue
0.159

@<SCITEGIC>MOL_PROPERTY
Angle
SciTegic.value.DoubleValue
0.856

@<SCITEGIC>MOL_PROPERTY
Pdih
SciTegic.value.DoubleValue
1.024

@<SCITEGIC>MOL_PROPERTY
Idih
SciTegic.value.DoubleValue
0.000

@<SCITEGIC>MOL_PROPERTY
Tether
SciTegic.value.DoubleValue
0.000

@<TRIPOS>MOLECULE
guest-s11_confgen4.mol2 : confsearch ligand conformer 136
          20          19           1
SMALL
USER_CHARGES
 
@<TRIPOS>ATOM
       1    N1      18.932837   17.738643   24.466440 N.4        1 MOL1        -0.5919
       2    H1      19.045609   16.780712   24.120053 H          1 MOL1         0.3682
       3    H2      19.417069   17.791710   25.368113 H          1 MOL1         0.3682
       4    H3      17.933994   17.870151   24.657517 H          1 MOL1         0.3682
       5    C1      19.457612   18.762927   23.480508 C.3        1 MOL1         0.0252
       6    H4      19.281328   19.757262   23.899575 H          1 MOL1         0.0971
       7    H5      18.876912   18.665326   22.560438 H          1 MOL1         0.0971
       8    C2      20.954522   18.588987   23.167973 C.3        1 MOL1        -0.1369
       9    H6      21.512607   18.569322   24.113530 H          1 MOL1         0.0997
      10    H7      21.117511   17.613133   22.691601 H          1 MOL1         0.0997
      11    C3      21.543956   19.709249   22.273830 C.3        1 MOL1        -0.1329
      12    H8      22.625688   19.532868   22.194469 H          1 MOL1         0.0997
      13    H9      21.438093   20.684387   22.769055 H          1 MOL1         0.0997
      14    C4      20.962476   19.772336   20.837483 C.3        1 MOL1        -0.1305
      15    H10     21.731304   20.190338   20.172441 H          1 MOL1         0.0997
      16    H11     20.759077   18.759141   20.463578 H          1 MOL1         0.0997
      17    C5      19.698225   20.654678   20.711079 C.3        1 MOL1        -0.2320
      18    H12     18.851583   20.251658   21.276452 H          1 MOL1         0.1008
      19    H13     19.892293   21.674265   21.068546 H          1 MOL1         0.1008
      20    H14     19.385911   20.725520   19.661114 H          1 MOL1         0.1008
@<TRIPOS>BOND
    1     1     2    1
    2     1     3    1
    3     1     4    1
    4     1     5    1
    5     5     6    1
    6     5     7    1
    7     5     8    1
    8     8     9    1
    9     8    10    1
   10     8    11    1
   11    11    12    1
   12    11    13    1
   13    11    14    1
   14    14    15    1
   15    14    16    1
   16    14    17    1
   17    17    18    1
   18    17    19    1
   19    17    20    1
@<TRIPOS>SUBSTRUCTURE
       1 MOL1            1 RESIDUE      1      MOL     
@<SCITEGIC>MOL_PROPERTY
VConf Rank
SciTegic.value.IntegerValue
136

@<SCITEGIC>MOL_PROPERTY
Conf_Id
SciTegic.value.IntegerValue
61

@<SCITEGIC>MOL_PROPERTY
Delta U+W
SciTegic.value.DoubleValue
2.669

@<SCITEGIC>MOL_PROPERTY
U+W
SciTegic.value.DoubleValue
-9.108

@<SCITEGIC>MOL_PROPERTY
Grad RMS
SciTegic.value.DoubleValue
0.000000

@<SCITEGIC>MOL_PROPERTY
U
SciTegic.value.DoubleValue
48.916

@<SCITEGIC>MOL_PROPERTY
W
SciTegic.value.DoubleValue
-58.025

@<SCITEGIC>MOL_PROPERTY
W(PB)
SciTegic.value.DoubleValue
-59.935

@<SCITEGIC>MOL_PROPERTY
W(SA)
SciTegic.value.DoubleValue
1.911

@<SCITEGIC>MOL_PROPERTY
Valence
SciTegic.value.DoubleValue
3.785

@<SCITEGIC>MOL_PROPERTY
Coulomb
SciTegic.value.DoubleValue
44.716

@<SCITEGIC>MOL_PROPERTY
VdW
SciTegic.value.DoubleValue
0.415

@<SCITEGIC>MOL_PROPERTY
VdW6
SciTegic.value.DoubleValue
-4.836

@<SCITEGIC>MOL_PROPERTY
VdW12
SciTegic.value.DoubleValue
5.251

@<SCITEGIC>MOL_PROPERTY
Bond
SciTegic.value.DoubleValue
0.175

@<SCITEGIC>MOL_PROPERTY
Angle
SciTegic.value.DoubleValue
1.195

@<SCITEGIC>MOL_PROPERTY
Pdih
SciTegic.value.DoubleValue
2.415

@<SCITEGIC>MOL_PROPERTY
Idih
SciTegic.value.DoubleValue
0.000

@<SCITEGIC>MOL_PROPERTY
Tether
SciTegic.value.DoubleValue
0.000

@<TRIPOS>MOLECULE
guest-s11_confgen4.mol2 : confsearch ligand conformer 137
          20          19           1
SMALL
USER_CHARGES
 
@<TRIPOS>ATOM
       1    N1      18.363811   17.843643   23.248132 N.4        1 MOL1        -0.5919
       2    H1      18.053418   17.212925   23.994786 H          1 MOL1         0.3682
       3    H2      17.593594   17.908031   22.575137 H          1 MOL1         0.3682
       4    H3      19.143867   17.384018   22.771391 H          1 MOL1         0.3682
       5    C1      18.753293   19.205969   23.789376 C.3        1 MOL1         0.0252
       6    H4      19.535150   19.071803   24.541730 H          1 MOL1         0.0971
       7    H5      17.870334   19.613923   24.288892 H          1 MOL1         0.0971
       8    C2      19.227057   20.206247   22.713985 C.3        1 MOL1        -0.1369
       9    H6      18.579334   20.143051   21.829521 H          1 MOL1         0.0997
      10    H7      19.088729   21.218676   23.116132 H          1 MOL1         0.0997
      11    C3      20.715330   20.057249   22.305802 C.3        1 MOL1        -0.1329
      12    H8      21.352319   20.181084   23.192580 H          1 MOL1         0.0997
      13    H9      20.968780   20.885757   21.629919 H          1 MOL1         0.0997
      14    C4      21.058100   18.720533   21.607225 C.3        1 MOL1        -0.1305
      15    H10     20.955586   17.888892   22.315544 H          1 MOL1         0.0997
      16    H11     20.354036   18.538026   20.783255 H          1 MOL1         0.0997
      17    C5      22.499793   18.720950   21.055373 C.3        1 MOL1        -0.2320
      18    H12     22.730264   17.762806   20.571746 H          1 MOL1         0.1008
      19    H13     22.638048   19.515123   20.310124 H          1 MOL1         0.1008
      20    H14     23.230454   18.876323   21.859900 H          1 MOL1         0.1008
@<TRIPOS>BOND
    1     1     2    1
    2     1     3    1
    3     1     4    1
    4     1     5    1
    5     5     6    1
    6     5     7    1
    7     5     8    1
    8     8     9    1
    9     8    10    1
   10     8    11    1
   11    11    12    1
   12    11    13    1
   13    11    14    1
   14    14    15    1
   15    14    16    1
   16    14    17    1
   17    17    18    1
   18    17    19    1
   19    17    20    1
@<TRIPOS>SUBSTRUCTURE
       1 MOL1            1 RESIDUE      1      MOL     
@<SCITEGIC>MOL_PROPERTY
VConf Rank
SciTegic.value.IntegerValue
137

@<SCITEGIC>MOL_PROPERTY
Conf_Id
SciTegic.value.IntegerValue
69

@<SCITEGIC>MOL_PROPERTY
Delta U+W
SciTegic.value.DoubleValue
2.811

@<SCITEGIC>MOL_PROPERTY
U+W
SciTegic.value.DoubleValue
-8.967

@<SCITEGIC>MOL_PROPERTY
Grad RMS
SciTegic.value.DoubleValue
0.000000

@<SCITEGIC>MOL_PROPERTY
U
SciTegic.value.DoubleValue
49.216

@<SCITEGIC>MOL_PROPERTY
W
SciTegic.value.DoubleValue
-58.183

@<SCITEGIC>MOL_PROPERTY
W(PB)
SciTegic.value.DoubleValue
-60.064

@<SCITEGIC>MOL_PROPERTY
W(SA)
SciTegic.value.DoubleValue
1.881

@<SCITEGIC>MOL_PROPERTY
Valence
SciTegic.value.DoubleValue
2.929

@<SCITEGIC>MOL_PROPERTY
Coulomb
SciTegic.value.DoubleValue
46.006

@<SCITEGIC>MOL_PROPERTY
VdW
SciTegic.value.DoubleValue
0.281

@<SCITEGIC>MOL_PROPERTY
VdW6
SciTegic.value.DoubleValue
-4.909

@<SCITEGIC>MOL_PROPERTY
VdW12
SciTegic.value.DoubleValue
5.190

@<SCITEGIC>MOL_PROPERTY
Bond
SciTegic.value.DoubleValue
0.156

@<SCITEGIC>MOL_PROPERTY
Angle
SciTegic.value.DoubleValue
0.974

@<SCITEGIC>MOL_PROPERTY
Pdih
SciTegic.value.DoubleValue
1.799

@<SCITEGIC>MOL_PROPERTY
Idih
SciTegic.value.DoubleValue
0.000

@<SCITEGIC>MOL_PROPERTY
Tether
SciTegic.value.DoubleValue
0.000

@<TRIPOS>MOLECULE
guest-s11_confgen4.mol2 : confsearch ligand conformer 138
          20          19           1
SMALL
USER_CHARGES
 
@<TRIPOS>ATOM
       1    N1      20.105664   18.607682   20.199588 N.4        1 MOL1        -0.5919
       2    H1      20.718009   18.140324   20.873114 H          1 MOL1         0.3682
       3    H2      19.317519   17.977847   20.019482 H          1 MOL1         0.3682
       4    H3      20.628918   18.686815   19.321188 H          1 MOL1         0.3682
       5    C1      19.640621   19.961782   20.700304 C.3        1 MOL1         0.0252
       6    H4      19.007676   20.389755   19.918142 H          1 MOL1         0.0971
       7    H5      20.514154   20.608397   20.819336 H          1 MOL1         0.0971
       8    C2      18.841655   19.912308   22.019654 C.3        1 MOL1        -0.1369
       9    H6      18.228359   20.821675   22.072480 H          1 MOL1         0.0997
      10    H7      18.133763   19.073075   21.999917 H          1 MOL1         0.0997
      11    C3      19.714091   19.853548   23.299957 C.3        1 MOL1        -0.1329
      12    H8      19.049243   19.939481   24.170630 H          1 MOL1         0.0997
      13    H9      20.375164   20.730675   23.333065 H          1 MOL1         0.0997
      14    C4      20.558660   18.565598   23.442083 C.3        1 MOL1        -0.1305
      15    H10     19.919757   17.682276   23.302484 H          1 MOL1         0.0997
      16    H11     21.332684   18.535749   22.665007 H          1 MOL1         0.0997
      17    C5      21.245023   18.485445   24.822482 C.3        1 MOL1        -0.2320
      18    H12     20.504256   18.472342   25.632615 H          1 MOL1         0.1008
      19    H13     21.847547   17.571422   24.903585 H          1 MOL1         0.1008
      20    H14     21.911310   19.343188   24.982508 H          1 MOL1         0.1008
@<TRIPOS>BOND
    1     1     2    1
    2     1     3    1
    3     1     4    1
    4     1     5    1
    5     5     6    1
    6     5     7    1
    7     5     8    1
    8     8     9    1
    9     8    10    1
   10     8    11    1
   11    11    12    1
   12    11    13    1
   13    11    14    1
   14    14    15    1
   15    14    16    1
   16    14    17    1
   17    17    18    1
   18    17    19    1
   19    17    20    1
@<TRIPOS>SUBSTRUCTURE
       1 MOL1            1 RESIDUE      1      MOL     
@<SCITEGIC>MOL_PROPERTY
VConf Rank
SciTegic.value.IntegerValue
138

@<SCITEGIC>MOL_PROPERTY
Conf_Id
SciTegic.value.IntegerValue
26

@<SCITEGIC>MOL_PROPERTY
Delta U+W
SciTegic.value.DoubleValue
2.809

@<SCITEGIC>MOL_PROPERTY
U+W
SciTegic.value.DoubleValue
-8.969

@<SCITEGIC>MOL_PROPERTY
Grad RMS
SciTegic.value.DoubleValue
0.000000

@<SCITEGIC>MOL_PROPERTY
U
SciTegic.value.DoubleValue
49.216

@<SCITEGIC>MOL_PROPERTY
W
SciTegic.value.DoubleValue
-58.185

@<SCITEGIC>MOL_PROPERTY
W(PB)
SciTegic.value.DoubleValue
-60.088

@<SCITEGIC>MOL_PROPERTY
W(SA)
SciTegic.value.DoubleValue
1.903

@<SCITEGIC>MOL_PROPERTY
Valence
SciTegic.value.DoubleValue
2.929

@<SCITEGIC>MOL_PROPERTY
Coulomb
SciTegic.value.DoubleValue
46.006

@<SCITEGIC>MOL_PROPERTY
VdW
SciTegic.value.DoubleValue
0.281

@<SCITEGIC>MOL_PROPERTY
VdW6
SciTegic.value.DoubleValue
-4.909

@<SCITEGIC>MOL_PROPERTY
VdW12
SciTegic.value.DoubleValue
5.190

@<SCITEGIC>MOL_PROPERTY
Bond
SciTegic.value.DoubleValue
0.156

@<SCITEGIC>MOL_PROPERTY
Angle
SciTegic.value.DoubleValue
0.974

@<SCITEGIC>MOL_PROPERTY
Pdih
SciTegic.value.DoubleValue
1.799

@<SCITEGIC>MOL_PROPERTY
Idih
SciTegic.value.DoubleValue
0.000

@<SCITEGIC>MOL_PROPERTY
Tether
SciTegic.value.DoubleValue
0.000

@<TRIPOS>MOLECULE
guest-s11_confgen4.mol2 : confsearch ligand conformer 139
          20          19           1
SMALL
USER_CHARGES
 
@<TRIPOS>ATOM
       1    N1      19.073612   18.321828   20.459678 N.4        1 MOL1        -0.5919
       2    H1      19.570589   19.178027   20.197236 H          1 MOL1         0.3682
       3    H2      19.537049   17.543710   19.980306 H          1 MOL1         0.3682
       4    H3      18.127822   18.391640   20.069915 H          1 MOL1         0.3682
       5    C1      19.050871   18.124654   21.962876 C.3        1 MOL1         0.0252
       6    H4      18.481336   17.214765   22.170818 H          1 MOL1         0.0971
       7    H5      18.516773   18.968019   22.408304 H          1 MOL1         0.0971
       8    C2      20.453183   18.005935   22.593525 C.3        1 MOL1        -0.1369
       9    H6      20.342597   17.789631   23.663812 H          1 MOL1         0.0997
      10    H7      20.967771   17.136243   22.164022 H          1 MOL1         0.0997
      11    C3      21.337790   19.266569   22.405732 C.3        1 MOL1        -0.1329
      12    H8      21.580882   19.384708   21.341233 H          1 MOL1         0.0997
      13    H9      22.298539   19.102989   22.913081 H          1 MOL1         0.0997
      14    C4      20.710255   20.584830   22.926710 C.3        1 MOL1        -0.1305
      15    H10     21.408038   21.409393   22.724113 H          1 MOL1         0.0997
      16    H11     19.795879   20.818934   22.364918 H          1 MOL1         0.0997
      17    C5      20.397067   20.558538   24.440006 C.3        1 MOL1        -0.2320
      18    H12     21.292541   20.310005   25.024232 H          1 MOL1         0.1008
      19    H13     20.039322   21.540459   24.775768 H          1 MOL1         0.1008
      20    H14     19.616956   19.824515   24.677153 H          1 MOL1         0.1008
@<TRIPOS>BOND
    1     1     2    1
    2     1     3    1
    3     1     4    1
    4     1     5    1
    5     5     6    1
    6     5     7    1
    7     5     8    1
    8     8     9    1
    9     8    10    1
   10     8    11    1
   11    11    12    1
   12    11    13    1
   13    11    14    1
   14    14    15    1
   15    14    16    1
   16    14    17    1
   17    17    18    1
   18    17    19    1
   19    17    20    1
@<TRIPOS>SUBSTRUCTURE
       1 MOL1            1 RESIDUE      1      MOL     
@<SCITEGIC>MOL_PROPERTY
VConf Rank
SciTegic.value.IntegerValue
139

@<SCITEGIC>MOL_PROPERTY
Conf_Id
SciTegic.value.IntegerValue
2

@<SCITEGIC>MOL_PROPERTY
Delta U+W
SciTegic.value.DoubleValue
0.994

@<SCITEGIC>MOL_PROPERTY
U+W
SciTegic.value.DoubleValue
-10.784

@<SCITEGIC>MOL_PROPERTY
Grad RMS
SciTegic.value.DoubleValue
0.000000

@<SCITEGIC>MOL_PROPERTY
U
SciTegic.value.DoubleValue
47.562

@<SCITEGIC>MOL_PROPERTY
W
SciTegic.value.DoubleValue
-58.346

@<SCITEGIC>MOL_PROPERTY
W(PB)
SciTegic.value.DoubleValue
-60.221

@<SCITEGIC>MOL_PROPERTY
W(SA)
SciTegic.value.DoubleValue
1.875

@<SCITEGIC>MOL_PROPERTY
Valence
SciTegic.value.DoubleValue
2.149

@<SCITEGIC>MOL_PROPERTY
Coulomb
SciTegic.value.DoubleValue
45.034

@<SCITEGIC>MOL_PROPERTY
VdW
SciTegic.value.DoubleValue
0.378

@<SCITEGIC>MOL_PROPERTY
VdW6
SciTegic.value.DoubleValue
-5.599

@<SCITEGIC>MOL_PROPERTY
VdW12
SciTegic.value.DoubleValue
5.977

@<SCITEGIC>MOL_PROPERTY
Bond
SciTegic.value.DoubleValue
0.185

@<SCITEGIC>MOL_PROPERTY
Angle
SciTegic.value.DoubleValue
0.935

@<SCITEGIC>MOL_PROPERTY
Pdih
SciTegic.value.DoubleValue
1.028

@<SCITEGIC>MOL_PROPERTY
Idih
SciTegic.value.DoubleValue
0.000

@<SCITEGIC>MOL_PROPERTY
Tether
SciTegic.value.DoubleValue
0.000

@<TRIPOS>MOLECULE
guest-s11_confgen4.mol2 : confsearch ligand conformer 140
          20          19           1
SMALL
USER_CHARGES
 
@<TRIPOS>ATOM
       1    N1      21.268476   16.936690   22.684656 N.4        1 MOL1        -0.5919
       2    H1      20.740775   16.108483   22.392010 H          1 MOL1         0.3682
       3    H2      21.636303   17.376599   21.836055 H          1 MOL1         0.3682
       4    H3      22.074184   16.602186   23.223406 H          1 MOL1         0.3682
       5    C1      20.412094   17.896047   23.487925 C.3        1 MOL1         0.0252
       6    H4      21.039997   18.736366   23.795391 H          1 MOL1         0.0971
       7    H5      20.081270   17.372558   24.389047 H          1 MOL1         0.0971
       8    C2      19.181807   18.420235   22.719870 C.3        1 MOL1        -0.1369
       9    H6      18.541210   17.571693   22.445553 H          1 MOL1         0.0997
      10    H7      18.581265   19.042157   23.395958 H          1 MOL1         0.0997
      11    C3      19.532946   19.228493   21.442994 C.3        1 MOL1        -0.1329
      12    H8      18.601176   19.587004   20.984218 H          1 MOL1         0.0997
      13    H9      19.989290   18.557994   20.702461 H          1 MOL1         0.0997
      14    C4      20.477179   20.435514   21.676573 C.3        1 MOL1        -0.1305
      15    H10     21.452329   20.089855   22.045490 H          1 MOL1         0.0997
      16    H11     20.674692   20.918512   20.709334 H          1 MOL1         0.0997
      17    C5      19.897821   21.487839   22.649093 C.3        1 MOL1        -0.2320
      18    H12     19.789364   21.082765   23.662876 H          1 MOL1         0.1008
      19    H13     20.561174   22.360166   22.711490 H          1 MOL1         0.1008
      20    H14     18.913860   21.838118   22.311328 H          1 MOL1         0.1008
@<TRIPOS>BOND
    1     1     2    1
    2     1     3    1
    3     1     4    1
    4     1     5    1
    5     5     6    1
    6     5     7    1
    7     5     8    1
    8     8     9    1
    9     8    10    1
   10     8    11    1
   11    11    12    1
   12    11    13    1
   13    11    14    1
   14    14    15    1
   15    14    16    1
   16    14    17    1
   17    17    18    1
   18    17    19    1
   19    17    20    1
@<TRIPOS>SUBSTRUCTURE
       1 MOL1            1 RESIDUE      1      MOL     
@<SCITEGIC>MOL_PROPERTY
VConf Rank
SciTegic.value.IntegerValue
140

@<SCITEGIC>MOL_PROPERTY
Conf_Id
SciTegic.value.IntegerValue
1

@<SCITEGIC>MOL_PROPERTY
Delta U+W
SciTegic.value.DoubleValue
1.032

@<SCITEGIC>MOL_PROPERTY
U+W
SciTegic.value.DoubleValue
-10.746

@<SCITEGIC>MOL_PROPERTY
Grad RMS
SciTegic.value.DoubleValue
0.000000

@<SCITEGIC>MOL_PROPERTY
U
SciTegic.value.DoubleValue
47.562

@<SCITEGIC>MOL_PROPERTY
W
SciTegic.value.DoubleValue
-58.308

@<SCITEGIC>MOL_PROPERTY
W(PB)
SciTegic.value.DoubleValue
-60.184

@<SCITEGIC>MOL_PROPERTY
W(SA)
SciTegic.value.DoubleValue
1.877

@<SCITEGIC>MOL_PROPERTY
Valence
SciTegic.value.DoubleValue
2.149

@<SCITEGIC>MOL_PROPERTY
Coulomb
SciTegic.value.DoubleValue
45.035

@<SCITEGIC>MOL_PROPERTY
VdW
SciTegic.value.DoubleValue
0.378

@<SCITEGIC>MOL_PROPERTY
VdW6
SciTegic.value.DoubleValue
-5.599

@<SCITEGIC>MOL_PROPERTY
VdW12
SciTegic.value.DoubleValue
5.978

@<SCITEGIC>MOL_PROPERTY
Bond
SciTegic.value.DoubleValue
0.185

@<SCITEGIC>MOL_PROPERTY
Angle
SciTegic.value.DoubleValue
0.935

@<SCITEGIC>MOL_PROPERTY
Pdih
SciTegic.value.DoubleValue
1.028

@<SCITEGIC>MOL_PROPERTY
Idih
SciTegic.value.DoubleValue
0.000

@<SCITEGIC>MOL_PROPERTY
Tether
SciTegic.value.DoubleValue
0.000

@<TRIPOS>MOLECULE
guest-s11_confgen4.mol2 : confsearch ligand conformer 141
          20          19           1
SMALL
USER_CHARGES
 
@<TRIPOS>ATOM
       1    N1      20.246966   18.826870   24.803088 N.4        1 MOL1        -0.5919
       2    H1      21.146287   18.726973   25.284059 H          1 MOL1         0.3682
       3    H2      20.117196   19.823673   24.607569 H          1 MOL1         0.3682
       4    H3      19.519208   18.555955   25.472654 H          1 MOL1         0.3682
       5    C1      20.187419   17.992067   23.538448 C.3        1 MOL1         0.0252
       6    H4      19.197988   18.120863   23.096907 H          1 MOL1         0.0971
       7    H5      20.290607   16.943827   23.831824 H          1 MOL1         0.0971
       8    C2      21.284402   18.339632   22.509593 C.3        1 MOL1        -0.1369
       9    H6      22.260503   18.207110   22.994859 H          1 MOL1         0.0997
      10    H7      21.256224   17.611631   21.688106 H          1 MOL1         0.0997
      11    C3      21.201823   19.778696   21.932880 C.3        1 MOL1        -0.1329
      12    H8      22.202608   20.054699   21.572772 H          1 MOL1         0.0997
      13    H9      20.967415   20.500845   22.725519 H          1 MOL1         0.0997
      14    C4      20.218283   19.955622   20.747393 C.3        1 MOL1        -0.1305
      15    H10     20.316440   20.982803   20.368961 H          1 MOL1         0.0997
      16    H11     20.515116   19.298272   19.918198 H          1 MOL1         0.0997
      17    C5      18.735559   19.702070   21.098351 C.3        1 MOL1        -0.2320
      18    H12     18.436980   20.258979   21.995827 H          1 MOL1         0.1008
      19    H13     18.087425   20.024287   20.273108 H          1 MOL1         0.1008
      20    H14     18.540838   18.635890   21.263873 H          1 MOL1         0.1008
@<TRIPOS>BOND
    1     1     2    1
    2     1     3    1
    3     1     4    1
    4     1     5    1
    5     5     6    1
    6     5     7    1
    7     5     8    1
    8     8     9    1
    9     8    10    1
   10     8    11    1
   11    11    12    1
   12    11    13    1
   13    11    14    1
   14    14    15    1
   15    14    16    1
   16    14    17    1
   17    17    18    1
   18    17    19    1
   19    17    20    1
@<TRIPOS>SUBSTRUCTURE
       1 MOL1            1 RESIDUE      1      MOL     
@<SCITEGIC>MOL_PROPERTY
VConf Rank
SciTegic.value.IntegerValue
141

@<SCITEGIC>MOL_PROPERTY
Conf_Id
SciTegic.value.IntegerValue
80

@<SCITEGIC>MOL_PROPERTY
Delta U+W
SciTegic.value.DoubleValue
2.920

@<SCITEGIC>MOL_PROPERTY
U+W
SciTegic.value.DoubleValue
-8.857

@<SCITEGIC>MOL_PROPERTY
Grad RMS
SciTegic.value.DoubleValue
0.000000

@<SCITEGIC>MOL_PROPERTY
U
SciTegic.value.DoubleValue
49.434

@<SCITEGIC>MOL_PROPERTY
W
SciTegic.value.DoubleValue
-58.292

@<SCITEGIC>MOL_PROPERTY
W(PB)
SciTegic.value.DoubleValue
-60.170

@<SCITEGIC>MOL_PROPERTY
W(SA)
SciTegic.value.DoubleValue
1.879

@<SCITEGIC>MOL_PROPERTY
Valence
SciTegic.value.DoubleValue
3.798

@<SCITEGIC>MOL_PROPERTY
Coulomb
SciTegic.value.DoubleValue
45.253

@<SCITEGIC>MOL_PROPERTY
VdW
SciTegic.value.DoubleValue
0.384

@<SCITEGIC>MOL_PROPERTY
VdW6
SciTegic.value.DoubleValue
-5.595

@<SCITEGIC>MOL_PROPERTY
VdW12
SciTegic.value.DoubleValue
5.979

@<SCITEGIC>MOL_PROPERTY
Bond
SciTegic.value.DoubleValue
0.198

@<SCITEGIC>MOL_PROPERTY
Angle
SciTegic.value.DoubleValue
1.368

@<SCITEGIC>MOL_PROPERTY
Pdih
SciTegic.value.DoubleValue
2.231

@<SCITEGIC>MOL_PROPERTY
Idih
SciTegic.value.DoubleValue
0.000

@<SCITEGIC>MOL_PROPERTY
Tether
SciTegic.value.DoubleValue
0.000

@<TRIPOS>MOLECULE
guest-s11_confgen4.mol2 : confsearch ligand conformer 142
          20          19           1
SMALL
USER_CHARGES
 
@<TRIPOS>ATOM
       1    N1      18.139956   18.590173   23.404949 N.4        1 MOL1        -0.5919
       2    H1      17.668894   17.752948   23.048234 H          1 MOL1         0.3682
       3    H2      17.658808   18.856993   24.270195 H          1 MOL1         0.3682
       4    H3      17.976482   19.341155   22.728201 H          1 MOL1         0.3682
       5    C1      19.619712   18.350644   23.634525 C.3        1 MOL1         0.0252
       6    H4      19.711922   17.570405   24.394951 H          1 MOL1         0.0971
       7    H5      20.049563   19.267459   24.040968 H          1 MOL1         0.0971
       8    C2      20.384848   17.914332   22.366880 C.3        1 MOL1        -0.1369
       9    H6      21.411442   17.636136   22.639518 H          1 MOL1         0.0997
      10    H7      19.916539   16.997297   21.985365 H          1 MOL1         0.0997
      11    C3      20.416434   18.971895   21.230708 C.3        1 MOL1        -0.1329
      12    H8      19.435664   19.452357   21.121310 H          1 MOL1         0.0997
      13    H9      20.589889   18.442784   20.283407 H          1 MOL1         0.0997
      14    C4      21.522132   20.050179   21.367745 C.3        1 MOL1        -0.1305
      15    H10     22.509952   19.568686   21.380298 H          1 MOL1         0.0997
      16    H11     21.503603   20.678779   20.466376 H          1 MOL1         0.0997
      17    C5      21.380159   20.963494   22.605334 C.3        1 MOL1        -0.2320
      18    H12     21.617429   20.423632   23.529620 H          1 MOL1         0.1008
      19    H13     22.076658   21.809205   22.537591 H          1 MOL1         0.1008
      20    H14     20.364445   21.371692   22.685707 H          1 MOL1         0.1008
@<TRIPOS>BOND
    1     1     2    1
    2     1     3    1
    3     1     4    1
    4     1     5    1
    5     5     6    1
    6     5     7    1
    7     5     8    1
    8     8     9    1
    9     8    10    1
   10     8    11    1
   11    11    12    1
   12    11    13    1
   13    11    14    1
   14    14    15    1
   15    14    16    1
   16    14    17    1
   17    17    18    1
   18    17    19    1
   19    17    20    1
@<TRIPOS>SUBSTRUCTURE
       1 MOL1            1 RESIDUE      1      MOL     
@<SCITEGIC>MOL_PROPERTY
VConf Rank
SciTegic.value.IntegerValue
142

@<SCITEGIC>MOL_PROPERTY
Conf_Id
SciTegic.value.IntegerValue
65

@<SCITEGIC>MOL_PROPERTY
Delta U+W
SciTegic.value.DoubleValue
2.949

@<SCITEGIC>MOL_PROPERTY
U+W
SciTegic.value.DoubleValue
-8.829

@<SCITEGIC>MOL_PROPERTY
Grad RMS
SciTegic.value.DoubleValue
0.000000

@<SCITEGIC>MOL_PROPERTY
U
SciTegic.value.DoubleValue
49.435

@<SCITEGIC>MOL_PROPERTY
W
SciTegic.value.DoubleValue
-58.263

@<SCITEGIC>MOL_PROPERTY
W(PB)
SciTegic.value.DoubleValue
-60.125

@<SCITEGIC>MOL_PROPERTY
W(SA)
SciTegic.value.DoubleValue
1.862

@<SCITEGIC>MOL_PROPERTY
Valence
SciTegic.value.DoubleValue
3.797

@<SCITEGIC>MOL_PROPERTY
Coulomb
SciTegic.value.DoubleValue
45.253

@<SCITEGIC>MOL_PROPERTY
VdW
SciTegic.value.DoubleValue
0.384

@<SCITEGIC>MOL_PROPERTY
VdW6
SciTegic.value.DoubleValue
-5.596

@<SCITEGIC>MOL_PROPERTY
VdW12
SciTegic.value.DoubleValue
5.980

@<SCITEGIC>MOL_PROPERTY
Bond
SciTegic.value.DoubleValue
0.198

@<SCITEGIC>MOL_PROPERTY
Angle
SciTegic.value.DoubleValue
1.369

@<SCITEGIC>MOL_PROPERTY
Pdih
SciTegic.value.DoubleValue
2.230

@<SCITEGIC>MOL_PROPERTY
Idih
SciTegic.value.DoubleValue
0.000

@<SCITEGIC>MOL_PROPERTY
Tether
SciTegic.value.DoubleValue
0.000

@<TRIPOS>MOLECULE
guest-s11_confgen4.mol2 : confsearch ligand conformer 143
          20          19           1
SMALL
USER_CHARGES
 
@<TRIPOS>ATOM
       1    N1      20.284025   20.260050   24.129857 N.4        1 MOL1        -0.5919
       2    H1      20.148445   21.226309   24.445519 H          1 MOL1         0.3682
       3    H2      19.378609   19.918217   23.793557 H          1 MOL1         0.3682
       4    H3      20.530219   19.707952   24.957494 H          1 MOL1         0.3682
       5    C1      21.346679   20.162916   23.052413 C.3        1 MOL1         0.0252
       6    H4      22.276450   20.541426   23.485744 H          1 MOL1         0.0971
       7    H5      21.067020   20.818948   22.223792 H          1 MOL1         0.0971
       8    C2      21.580954   18.730676   22.530670 C.3        1 MOL1        -0.1369
       9    H6      22.591652   18.692632   22.103057 H          1 MOL1         0.0997
      10    H7      21.586296   18.024800   23.371812 H          1 MOL1         0.0997
      11    C3      20.586602   18.253980   21.438019 C.3        1 MOL1        -0.1329
      12    H8      20.902114   17.249667   21.122849 H          1 MOL1         0.0997
      13    H9      20.682151   18.885213   20.543659 H          1 MOL1         0.0997
      14    C4      19.102136   18.174579   21.876854 C.3        1 MOL1        -0.1305
      15    H10     18.635424   17.313340   21.378150 H          1 MOL1         0.0997
      16    H11     19.029980   17.966896   22.952923 H          1 MOL1         0.0997
      17    C5      18.288964   19.435958   21.500698 C.3        1 MOL1        -0.2320
      18    H12     18.730347   20.354650   21.901676 H          1 MOL1         0.1008
      19    H13     18.232416   19.547548   20.409978 H          1 MOL1         0.1008
      20    H14     17.260942   19.360460   21.878389 H          1 MOL1         0.1008
@<TRIPOS>BOND
    1     1     2    1
    2     1     3    1
    3     1     4    1
    4     1     5    1
    5     5     6    1
    6     5     7    1
    7     5     8    1
    8     8     9    1
    9     8    10    1
   10     8    11    1
   11    11    12    1
   12    11    13    1
   13    11    14    1
   14    14    15    1
   15    14    16    1
   16    14    17    1
   17    17    18    1
   18    17    19    1
   19    17    20    1
@<TRIPOS>SUBSTRUCTURE
       1 MOL1            1 RESIDUE      1      MOL     
@<SCITEGIC>MOL_PROPERTY
VConf Rank
SciTegic.value.IntegerValue
143

@<SCITEGIC>MOL_PROPERTY
Conf_Id
SciTegic.value.IntegerValue
77

@<SCITEGIC>MOL_PROPERTY
Delta U+W
SciTegic.value.DoubleValue
5.366

@<SCITEGIC>MOL_PROPERTY
U+W
SciTegic.value.DoubleValue
-6.412

@<SCITEGIC>MOL_PROPERTY
Grad RMS
SciTegic.value.DoubleValue
0.000000

@<SCITEGIC>MOL_PROPERTY
U
SciTegic.value.DoubleValue
51.542

@<SCITEGIC>MOL_PROPERTY
W
SciTegic.value.DoubleValue
-57.954

@<SCITEGIC>MOL_PROPERTY
W(PB)
SciTegic.value.DoubleValue
-59.811

@<SCITEGIC>MOL_PROPERTY
W(SA)
SciTegic.value.DoubleValue
1.857

@<SCITEGIC>MOL_PROPERTY
Valence
SciTegic.value.DoubleValue
5.347

@<SCITEGIC>MOL_PROPERTY
Coulomb
SciTegic.value.DoubleValue
45.870

@<SCITEGIC>MOL_PROPERTY
VdW
SciTegic.value.DoubleValue
0.325

@<SCITEGIC>MOL_PROPERTY
VdW6
SciTegic.value.DoubleValue
-6.161

@<SCITEGIC>MOL_PROPERTY
VdW12
SciTegic.value.DoubleValue
6.486

@<SCITEGIC>MOL_PROPERTY
Bond
SciTegic.value.DoubleValue
0.201

@<SCITEGIC>MOL_PROPERTY
Angle
SciTegic.value.DoubleValue
1.484

@<SCITEGIC>MOL_PROPERTY
Pdih
SciTegic.value.DoubleValue
3.662

@<SCITEGIC>MOL_PROPERTY
Idih
SciTegic.value.DoubleValue
0.000

@<SCITEGIC>MOL_PROPERTY
Tether
SciTegic.value.DoubleValue
0.000

@<TRIPOS>MOLECULE
guest-s11_confgen4.mol2 : confsearch ligand conformer 144
          20          19           1
SMALL
USER_CHARGES
 
@<TRIPOS>ATOM
       1    N1      20.971283   20.835676   22.227768 N.4        1 MOL1        -0.5919
       2    H1      21.994805   20.873215   22.190363 H          1 MOL1         0.3682
       3    H2      20.657350   20.275017   21.429750 H          1 MOL1         0.3682
       4    H3      20.632292   21.792503   22.081994 H          1 MOL1         0.3682
       5    C1      20.477224   20.256307   23.539179 C.3        1 MOL1         0.0252
       6    H4      19.384934   20.300142   23.552632 H          1 MOL1         0.0971
       7    H5      20.852481   20.904100   24.336090 H          1 MOL1         0.0971
       8    C2      20.946858   18.811081   23.802191 C.3        1 MOL1        -0.1369
       9    H6      22.002560   18.705860   23.518943 H          1 MOL1         0.0997
      10    H7      20.910613   18.640697   24.886381 H          1 MOL1         0.0997
      11    C3      20.096911   17.705168   23.120715 C.3        1 MOL1        -0.1329
      12    H8      19.069577   17.729265   23.509904 H          1 MOL1         0.0997
      13    H9      20.506831   16.735467   23.435630 H          1 MOL1         0.0997
      14    C4      20.079529   17.737980   21.571153 C.3        1 MOL1        -0.1305
      15    H10     21.014510   18.165914   21.185218 H          1 MOL1         0.0997
      16    H11     20.052827   16.703831   21.199558 H          1 MOL1         0.0997
      17    C5      18.850998   18.479610   20.992779 C.3        1 MOL1        -0.2320
      18    H12     18.907929   18.526938   19.897471 H          1 MOL1         0.1008
      19    H13     17.924077   17.951711   21.252512 H          1 MOL1         0.1008
      20    H14     18.762286   19.503389   21.371726 H          1 MOL1         0.1008
@<TRIPOS>BOND
    1     1     2    1
    2     1     3    1
    3     1     4    1
    4     1     5    1
    5     5     6    1
    6     5     7    1
    7     5     8    1
    8     8     9    1
    9     8    10    1
   10     8    11    1
   11    11    12    1
   12    11    13    1
   13    11    14    1
   14    14    15    1
   15    14    16    1
   16    14    17    1
   17    17    18    1
   18    17    19    1
   19    17    20    1
@<TRIPOS>SUBSTRUCTURE
       1 MOL1            1 RESIDUE      1      MOL     
@<SCITEGIC>MOL_PROPERTY
VConf Rank
SciTegic.value.IntegerValue
144

@<SCITEGIC>MOL_PROPERTY
Conf_Id
SciTegic.value.IntegerValue
67

@<SCITEGIC>MOL_PROPERTY
Delta U+W
SciTegic.value.DoubleValue
5.353

@<SCITEGIC>MOL_PROPERTY
U+W
SciTegic.value.DoubleValue
-6.425

@<SCITEGIC>MOL_PROPERTY
Grad RMS
SciTegic.value.DoubleValue
0.000000

@<SCITEGIC>MOL_PROPERTY
U
SciTegic.value.DoubleValue
51.541

@<SCITEGIC>MOL_PROPERTY
W
SciTegic.value.DoubleValue
-57.966

@<SCITEGIC>MOL_PROPERTY
W(PB)
SciTegic.value.DoubleValue
-59.821

@<SCITEGIC>MOL_PROPERTY
W(SA)
SciTegic.value.DoubleValue
1.855

@<SCITEGIC>MOL_PROPERTY
Valence
SciTegic.value.DoubleValue
5.347

@<SCITEGIC>MOL_PROPERTY
Coulomb
SciTegic.value.DoubleValue
45.870

@<SCITEGIC>MOL_PROPERTY
VdW
SciTegic.value.DoubleValue
0.325

@<SCITEGIC>MOL_PROPERTY
VdW6
SciTegic.value.DoubleValue
-6.161

@<SCITEGIC>MOL_PROPERTY
VdW12
SciTegic.value.DoubleValue
6.486

@<SCITEGIC>MOL_PROPERTY
Bond
SciTegic.value.DoubleValue
0.201

@<SCITEGIC>MOL_PROPERTY
Angle
SciTegic.value.DoubleValue
1.485

@<SCITEGIC>MOL_PROPERTY
Pdih
SciTegic.value.DoubleValue
3.662

@<SCITEGIC>MOL_PROPERTY
Idih
SciTegic.value.DoubleValue
0.000

@<SCITEGIC>MOL_PROPERTY
Tether
SciTegic.value.DoubleValue
0.000

@<TRIPOS>MOLECULE
guest-s11_confgen4.mol2 : confsearch ligand conformer 145
          20          19           1
SMALL
USER_CHARGES
 
@<TRIPOS>ATOM
       1    N1      17.223131   18.136133   23.350588 N.4        1 MOL1        -0.5919
       2    H1      16.971012   17.646565   22.486211 H          1 MOL1         0.3682
       3    H2      16.809674   17.605058   24.124288 H          1 MOL1         0.3682
       4    H3      16.751975   19.046060   23.329786 H          1 MOL1         0.3682
       5    C1      18.724016   18.278531   23.504057 C.3        1 MOL1         0.0252
       6    H4      19.155406   17.274850   23.549266 H          1 MOL1         0.0971
       7    H5      18.919940   18.779472   24.455997 H          1 MOL1         0.0971
       8    C2      19.376787   19.071547   22.357636 C.3        1 MOL1        -0.1369
       9    H6      19.164034   18.573700   21.402150 H          1 MOL1         0.0997
      10    H7      18.929384   20.073149   22.305744 H          1 MOL1         0.0997
      11    C3      20.904558   19.193500   22.551994 C.3        1 MOL1        -0.1329
      12    H8      21.348196   18.189630   22.608741 H          1 MOL1         0.0997
      13    H9      21.113838   19.687358   23.511211 H          1 MOL1         0.0997
      14    C4      21.570890   19.988018   21.406446 C.3        1 MOL1        -0.1305
      15    H10     21.365750   19.496218   20.445145 H          1 MOL1         0.0997
      16    H11     21.131507   20.993761   21.347541 H          1 MOL1         0.0997
      17    C5      23.097135   20.107215   21.604807 C.3        1 MOL1        -0.2320
      18    H12     23.570331   19.117017   21.633237 H          1 MOL1         0.1008
      19    H13     23.551961   20.674035   20.782072 H          1 MOL1         0.1008
      20    H14     23.334267   20.626371   22.542601 H          1 MOL1         0.1008
@<TRIPOS>BOND
    1     1     2    1
    2     1     3    1
    3     1     4    1
    4     1     5    1
    5     5     6    1
    6     5     7    1
    7     5     8    1
    8     8     9    1
    9     8    10    1
   10     8    11    1
   11    11    12    1
   12    11    13    1
   13    11    14    1
   14    14    15    1
   15    14    16    1
   16    14    17    1
   17    17    18    1
   18    17    19    1
   19    17    20    1
@<TRIPOS>SUBSTRUCTURE
       1 MOL1            1 RESIDUE      1      MOL     
@<SCITEGIC>MOL_PROPERTY
VConf Rank
SciTegic.value.IntegerValue
145

@<SCITEGIC>MOL_PROPERTY
Conf_Id
SciTegic.value.IntegerValue
72

@<SCITEGIC>MOL_PROPERTY
Delta U+W
SciTegic.value.DoubleValue
0.000

@<SCITEGIC>MOL_PROPERTY
U+W
SciTegic.value.DoubleValue
-11.778

@<SCITEGIC>MOL_PROPERTY
Grad RMS
SciTegic.value.DoubleValue
0.000000

@<SCITEGIC>MOL_PROPERTY
U
SciTegic.value.DoubleValue
45.772

@<SCITEGIC>MOL_PROPERTY
W
SciTegic.value.DoubleValue
-57.550

@<SCITEGIC>MOL_PROPERTY
W(PB)
SciTegic.value.DoubleValue
-59.511

@<SCITEGIC>MOL_PROPERTY
W(SA)
SciTegic.value.DoubleValue
1.961

@<SCITEGIC>MOL_PROPERTY
Valence
SciTegic.value.DoubleValue
1.299

@<SCITEGIC>MOL_PROPERTY
Coulomb
SciTegic.value.DoubleValue
44.177

@<SCITEGIC>MOL_PROPERTY
VdW
SciTegic.value.DoubleValue
0.297

@<SCITEGIC>MOL_PROPERTY
VdW6
SciTegic.value.DoubleValue
-3.490

@<SCITEGIC>MOL_PROPERTY
VdW12
SciTegic.value.DoubleValue
3.786

@<SCITEGIC>MOL_PROPERTY
Bond
SciTegic.value.DoubleValue
0.096

@<SCITEGIC>MOL_PROPERTY
Angle
SciTegic.value.DoubleValue
0.381

@<SCITEGIC>MOL_PROPERTY
Pdih
SciTegic.value.DoubleValue
0.822

@<SCITEGIC>MOL_PROPERTY
Idih
SciTegic.value.DoubleValue
0.000

@<SCITEGIC>MOL_PROPERTY
Tether
SciTegic.value.DoubleValue
0.000

@<TRIPOS>MOLECULE
guest-s11_confgen4.mol2 : confsearch ligand conformer 146
          20          19           1
SMALL
USER_CHARGES
 
@<TRIPOS>ATOM
       1    N1      21.501885   20.048738   19.970917 N.4        1 MOL1        -0.5919
       2    H1      22.268134   20.460871   20.512530 H          1 MOL1         0.3682
       3    H2      21.814880   19.122870   19.662427 H          1 MOL1         0.3682
       4    H3      21.392406   20.621663   19.127500 H          1 MOL1         0.3682
       5    C1      20.217525   19.974781   20.771869 C.3        1 MOL1         0.0252
       6    H4      19.440804   19.556390   20.126000 H          1 MOL1         0.0971
       7    H5      19.928011   20.994344   21.040531 H          1 MOL1         0.0971
       8    C2      20.347058   19.120771   22.045900 C.3        1 MOL1        -0.1369
       9    H6      20.653346   18.102247   21.772757 H          1 MOL1         0.0997
      10    H7      21.140695   19.539095   22.677732 H          1 MOL1         0.0997
      11    C3      19.014174   19.071290   22.829547 C.3        1 MOL1        -0.1329
      12    H8      18.217186   18.722399   22.158111 H          1 MOL1         0.0997
      13    H9      18.731189   20.085811   23.143001 H          1 MOL1         0.0997
      14    C4      19.058582   18.140970   24.066156 C.3        1 MOL1        -0.1305
      15    H10     18.050394   18.082507   24.499835 H          1 MOL1         0.0997
      16    H11     19.317924   17.119597   23.754044 H          1 MOL1         0.0997
      17    C5      20.043633   18.616616   25.158387 C.3        1 MOL1        -0.2320
      18    H12     19.823190   19.646432   25.468060 H          1 MOL1         0.1008
      19    H13     19.970059   17.976453   26.047055 H          1 MOL1         0.1008
      20    H14     21.082955   18.577051   24.809579 H          1 MOL1         0.1008
@<TRIPOS>BOND
    1     1     2    1
    2     1     3    1
    3     1     4    1
    4     1     5    1
    5     5     6    1
    6     5     7    1
    7     5     8    1
    8     8     9    1
    9     8    10    1
   10     8    11    1
   11    11    12    1
   12    11    13    1
   13    11    14    1
   14    14    15    1
   15    14    16    1
   16    14    17    1
   17    17    18    1
   18    17    19    1
   19    17    20    1
@<TRIPOS>SUBSTRUCTURE
       1 MOL1            1 RESIDUE      1      MOL     
@<SCITEGIC>MOL_PROPERTY
VConf Rank
SciTegic.value.IntegerValue
146

@<SCITEGIC>MOL_PROPERTY
Conf_Id
SciTegic.value.IntegerValue
42

@<SCITEGIC>MOL_PROPERTY
Delta U+W
SciTegic.value.DoubleValue
0.508

@<SCITEGIC>MOL_PROPERTY
U+W
SciTegic.value.DoubleValue
-11.270

@<SCITEGIC>MOL_PROPERTY
Grad RMS
SciTegic.value.DoubleValue
0.000000

@<SCITEGIC>MOL_PROPERTY
U
SciTegic.value.DoubleValue
46.486

@<SCITEGIC>MOL_PROPERTY
W
SciTegic.value.DoubleValue
-57.756

@<SCITEGIC>MOL_PROPERTY
W(PB)
SciTegic.value.DoubleValue
-59.705

@<SCITEGIC>MOL_PROPERTY
W(SA)
SciTegic.value.DoubleValue
1.949

@<SCITEGIC>MOL_PROPERTY
Valence
SciTegic.value.DoubleValue
1.806

@<SCITEGIC>MOL_PROPERTY
Coulomb
SciTegic.value.DoubleValue
44.248

@<SCITEGIC>MOL_PROPERTY
VdW
SciTegic.value.DoubleValue
0.433

@<SCITEGIC>MOL_PROPERTY
VdW6
SciTegic.value.DoubleValue
-4.089

@<SCITEGIC>MOL_PROPERTY
VdW12
SciTegic.value.DoubleValue
4.522

@<SCITEGIC>MOL_PROPERTY
Bond
SciTegic.value.DoubleValue
0.131

@<SCITEGIC>MOL_PROPERTY
Angle
SciTegic.value.DoubleValue
0.628

@<SCITEGIC>MOL_PROPERTY
Pdih
SciTegic.value.DoubleValue
1.047

@<SCITEGIC>MOL_PROPERTY
Idih
SciTegic.value.DoubleValue
0.000

@<SCITEGIC>MOL_PROPERTY
Tether
SciTegic.value.DoubleValue
0.000

@<TRIPOS>MOLECULE
guest-s11_confgen4.mol2 : confsearch ligand conformer 147
          20          19           1
SMALL
USER_CHARGES
 
@<TRIPOS>ATOM
       1    N1      22.768581   20.462993   22.962406 N.4        1 MOL1        -0.5919
       2    H1      22.586459   21.288993   22.383684 H          1 MOL1         0.3682
       3    H2      22.492491   20.699579   23.920600 H          1 MOL1         0.3682
       4    H3      23.784637   20.324680   22.971458 H          1 MOL1         0.3682
       5    C1      22.038327   19.238730   22.448120 C.3        1 MOL1         0.0252
       6    H4      22.300724   18.394210   23.091114 H          1 MOL1         0.0971
       7    H5      22.402512   19.027850   21.438965 H          1 MOL1         0.0971
       8    C2      20.509227   19.413034   22.420904 C.3        1 MOL1        -0.1369
       9    H6      20.157218   19.641675   23.434749 H          1 MOL1         0.0997
      10    H7      20.251172   20.271705   21.786946 H          1 MOL1         0.0997
      11    C3      19.806185   18.142268   21.887969 C.3        1 MOL1        -0.1329
      12    H8      20.027040   17.292384   22.548657 H          1 MOL1         0.0997
      13    H9      20.226506   17.886346   20.905331 H          1 MOL1         0.0997
      14    C4      18.273018   18.299522   21.741892 C.3        1 MOL1        -0.1305
      15    H10     18.047749   19.133725   21.062749 H          1 MOL1         0.0997
      16    H11     17.869985   17.396339   21.262555 H          1 MOL1         0.0997
      17    C5      17.545907   18.515013   23.088891 C.3        1 MOL1        -0.2320
      18    H12     17.826907   19.469362   23.551145 H          1 MOL1         0.1008
      19    H13     16.458384   18.528773   22.940380 H          1 MOL1         0.1008
      20    H14     17.777311   17.708235   23.796405 H          1 MOL1         0.1008
@<TRIPOS>BOND
    1     1     2    1
    2     1     3    1
    3     1     4    1
    4     1     5    1
    5     5     6    1
    6     5     7    1
    7     5     8    1
    8     8     9    1
    9     8    10    1
   10     8    11    1
   11    11    12    1
   12    11    13    1
   13    11    14    1
   14    14    15    1
   15    14    16    1
   16    14    17    1
   17    17    18    1
   18    17    19    1
   19    17    20    1
@<TRIPOS>SUBSTRUCTURE
       1 MOL1            1 RESIDUE      1      MOL     
@<SCITEGIC>MOL_PROPERTY
VConf Rank
SciTegic.value.IntegerValue
147

@<SCITEGIC>MOL_PROPERTY
Conf_Id
SciTegic.value.IntegerValue
41

@<SCITEGIC>MOL_PROPERTY
Delta U+W
SciTegic.value.DoubleValue
0.515

@<SCITEGIC>MOL_PROPERTY
U+W
SciTegic.value.DoubleValue
-11.263

@<SCITEGIC>MOL_PROPERTY
Grad RMS
SciTegic.value.DoubleValue
0.000000

@<SCITEGIC>MOL_PROPERTY
U
SciTegic.value.DoubleValue
46.486

@<SCITEGIC>MOL_PROPERTY
W
SciTegic.value.DoubleValue
-57.749

@<SCITEGIC>MOL_PROPERTY
W(PB)
SciTegic.value.DoubleValue
-59.685

@<SCITEGIC>MOL_PROPERTY
W(SA)
SciTegic.value.DoubleValue
1.936

@<SCITEGIC>MOL_PROPERTY
Valence
SciTegic.value.DoubleValue
1.806

@<SCITEGIC>MOL_PROPERTY
Coulomb
SciTegic.value.DoubleValue
44.248

@<SCITEGIC>MOL_PROPERTY
VdW
SciTegic.value.DoubleValue
0.433

@<SCITEGIC>MOL_PROPERTY
VdW6
SciTegic.value.DoubleValue
-4.089

@<SCITEGIC>MOL_PROPERTY
VdW12
SciTegic.value.DoubleValue
4.522

@<SCITEGIC>MOL_PROPERTY
Bond
SciTegic.value.DoubleValue
0.131

@<SCITEGIC>MOL_PROPERTY
Angle
SciTegic.value.DoubleValue
0.628

@<SCITEGIC>MOL_PROPERTY
Pdih
SciTegic.value.DoubleValue
1.047

@<SCITEGIC>MOL_PROPERTY
Idih
SciTegic.value.DoubleValue
0.000

@<SCITEGIC>MOL_PROPERTY
Tether
SciTegic.value.DoubleValue
0.000

@<TRIPOS>MOLECULE
guest-s11_confgen4.mol2 : confsearch ligand conformer 148
          20          19           1
SMALL
USER_CHARGES
 
@<TRIPOS>ATOM
       1    N1      22.289582   17.947543   23.755088 N.4        1 MOL1        -0.5919
       2    H1      22.776953   17.126629   24.129347 H          1 MOL1         0.3682
       3    H2      22.658093   18.109233   22.813283 H          1 MOL1         0.3682
       4    H3      22.568811   18.747784   24.331143 H          1 MOL1         0.3682
       5    C1      20.785360   17.754075   23.748035 C.3        1 MOL1         0.0252
       6    H4      20.474450   17.544062   24.775084 H          1 MOL1         0.0971
       7    H5      20.558348   16.875526   23.138069 H          1 MOL1         0.0971
       8    C2      20.001460   18.970540   23.217391 C.3        1 MOL1        -0.1369
       9    H6      18.932134   18.774411   23.364647 H          1 MOL1         0.0997
      10    H7      20.244820   19.854933   23.820975 H          1 MOL1         0.0997
      11    C3      20.280301   19.255444   21.719996 C.3        1 MOL1        -0.1329
      12    H8      20.013100   18.374492   21.119999 H          1 MOL1         0.0997
      13    H9      21.356624   19.414746   21.572486 H          1 MOL1         0.0997
      14    C4      19.529689   20.496502   21.178387 C.3        1 MOL1        -0.1305
      15    H10     19.804133   21.383252   21.766792 H          1 MOL1         0.0997
      16    H11     19.869095   20.692818   20.151643 H          1 MOL1         0.0997
      17    C5      17.992517   20.332787   21.170383 C.3        1 MOL1        -0.2320
      18    H12     17.588621   20.258353   22.187534 H          1 MOL1         0.1008
      19    H13     17.516906   21.197828   20.690336 H          1 MOL1         0.1008
      20    H14     17.693535   19.434791   20.614310 H          1 MOL1         0.1008
@<TRIPOS>BOND
    1     1     2    1
    2     1     3    1
    3     1     4    1
    4     1     5    1
    5     5     6    1
    6     5     7    1
    7     5     8    1
    8     8     9    1
    9     8    10    1
   10     8    11    1
   11    11    12    1
   12    11    13    1
   13    11    14    1
   14    14    15    1
   15    14    16    1
   16    14    17    1
   17    17    18    1
   18    17    19    1
   19    17    20    1
@<TRIPOS>SUBSTRUCTURE
       1 MOL1            1 RESIDUE      1      MOL     
@<SCITEGIC>MOL_PROPERTY
VConf Rank
SciTegic.value.IntegerValue
148

@<SCITEGIC>MOL_PROPERTY
Conf_Id
SciTegic.value.IntegerValue
33

@<SCITEGIC>MOL_PROPERTY
Delta U+W
SciTegic.value.DoubleValue
0.703

@<SCITEGIC>MOL_PROPERTY
U+W
SciTegic.value.DoubleValue
-11.075

@<SCITEGIC>MOL_PROPERTY
Grad RMS
SciTegic.value.DoubleValue
0.000000

@<SCITEGIC>MOL_PROPERTY
U
SciTegic.value.DoubleValue
47.080

@<SCITEGIC>MOL_PROPERTY
W
SciTegic.value.DoubleValue
-58.154

@<SCITEGIC>MOL_PROPERTY
W(PB)
SciTegic.value.DoubleValue
-60.053

@<SCITEGIC>MOL_PROPERTY
W(SA)
SciTegic.value.DoubleValue
1.899

@<SCITEGIC>MOL_PROPERTY
Valence
SciTegic.value.DoubleValue
1.943

@<SCITEGIC>MOL_PROPERTY
Coulomb
SciTegic.value.DoubleValue
44.572

@<SCITEGIC>MOL_PROPERTY
VdW
SciTegic.value.DoubleValue
0.565

@<SCITEGIC>MOL_PROPERTY
VdW6
SciTegic.value.DoubleValue
-4.575

@<SCITEGIC>MOL_PROPERTY
VdW12
SciTegic.value.DoubleValue
5.139

@<SCITEGIC>MOL_PROPERTY
Bond
SciTegic.value.DoubleValue
0.158

@<SCITEGIC>MOL_PROPERTY
Angle
SciTegic.value.DoubleValue
0.700

@<SCITEGIC>MOL_PROPERTY
Pdih
SciTegic.value.DoubleValue
1.085

@<SCITEGIC>MOL_PROPERTY
Idih
SciTegic.value.DoubleValue
0.000

@<SCITEGIC>MOL_PROPERTY
Tether
SciTegic.value.DoubleValue
0.000

@<TRIPOS>MOLECULE
guest-s11_confgen4.mol2 : confsearch ligand conformer 149
          20          19           1
SMALL
USER_CHARGES
 
@<TRIPOS>ATOM
       1    N1      18.026274   17.349954   22.444377 N.4        1 MOL1        -0.5919
       2    H1      17.028583   17.137151   22.340323 H          1 MOL1         0.3682
       3    H2      18.541119   16.513357   22.152431 H          1 MOL1         0.3682
       4    H3      18.200707   17.478836   23.445327 H          1 MOL1         0.3682
       5    C1      18.428236   18.570437   21.638767 C.3        1 MOL1         0.0252
       6    H4      17.828538   19.417514   21.982664 H          1 MOL1         0.0971
       7    H5      18.172632   18.375338   20.593681 H          1 MOL1         0.0971
       8    C2      19.925984   18.920277   21.739880 C.3        1 MOL1        -0.1369
       9    H6      20.525878   18.061645   21.410380 H          1 MOL1         0.0997
      10    H7      20.131281   19.735702   21.035221 H          1 MOL1         0.0997
      11    C3      20.346146   19.345322   23.169537 C.3        1 MOL1        -0.1329
      12    H8      20.105019   18.540080   23.875973 H          1 MOL1         0.0997
      13    H9      19.757709   20.218576   23.483602 H          1 MOL1         0.0997
      14    C4      21.855344   19.665543   23.298988 C.3        1 MOL1        -0.1305
      15    H10     22.087586   19.844632   24.358200 H          1 MOL1         0.0997
      16    H11     22.448352   18.790248   22.998876 H          1 MOL1         0.0997
      17    C5      22.296735   20.899127   22.478496 C.3        1 MOL1        -0.2320
      18    H12     21.697053   21.781336   22.737524 H          1 MOL1         0.1008
      19    H13     23.348835   21.138155   22.680733 H          1 MOL1         0.1008
      20    H14     22.201441   20.722507   21.400073 H          1 MOL1         0.1008
@<TRIPOS>BOND
    1     1     2    1
    2     1     3    1
    3     1     4    1
    4     1     5    1
    5     5     6    1
    6     5     7    1
    7     5     8    1
    8     8     9    1
    9     8    10    1
   10     8    11    1
   11    11    12    1
   12    11    13    1
   13    11    14    1
   14    14    15    1
   15    14    16    1
   16    14    17    1
   17    17    18    1
   18    17    19    1
   19    17    20    1
@<TRIPOS>SUBSTRUCTURE
       1 MOL1            1 RESIDUE      1      MOL     
@<SCITEGIC>MOL_PROPERTY
VConf Rank
SciTegic.value.IntegerValue
149

@<SCITEGIC>MOL_PROPERTY
Conf_Id
SciTegic.value.IntegerValue
24

@<SCITEGIC>MOL_PROPERTY
Delta U+W
SciTegic.value.DoubleValue
0.847

@<SCITEGIC>MOL_PROPERTY
U+W
SciTegic.value.DoubleValue
-10.931

@<SCITEGIC>MOL_PROPERTY
Grad RMS
SciTegic.value.DoubleValue
0.000000

@<SCITEGIC>MOL_PROPERTY
U
SciTegic.value.DoubleValue
47.080

@<SCITEGIC>MOL_PROPERTY
W
SciTegic.value.DoubleValue
-58.011

@<SCITEGIC>MOL_PROPERTY
W(PB)
SciTegic.value.DoubleValue
-59.914

@<SCITEGIC>MOL_PROPERTY
W(SA)
SciTegic.value.DoubleValue
1.903

@<SCITEGIC>MOL_PROPERTY
Valence
SciTegic.value.DoubleValue
1.943

@<SCITEGIC>MOL_PROPERTY
Coulomb
SciTegic.value.DoubleValue
44.572

@<SCITEGIC>MOL_PROPERTY
VdW
SciTegic.value.DoubleValue
0.565

@<SCITEGIC>MOL_PROPERTY
VdW6
SciTegic.value.DoubleValue
-4.575

@<SCITEGIC>MOL_PROPERTY
VdW12
SciTegic.value.DoubleValue
5.140

@<SCITEGIC>MOL_PROPERTY
Bond
SciTegic.value.DoubleValue
0.158

@<SCITEGIC>MOL_PROPERTY
Angle
SciTegic.value.DoubleValue
0.700

@<SCITEGIC>MOL_PROPERTY
Pdih
SciTegic.value.DoubleValue
1.085

@<SCITEGIC>MOL_PROPERTY
Idih
SciTegic.value.DoubleValue
0.000

@<SCITEGIC>MOL_PROPERTY
Tether
SciTegic.value.DoubleValue
0.000

@<TRIPOS>MOLECULE
guest-s11_confgen4.mol2 : confsearch ligand conformer 150
          20          19           1
SMALL
USER_CHARGES
 
@<TRIPOS>ATOM
       1    N1      18.836476   21.511438   21.747145 N.4        1 MOL1        -0.5919
       2    H1      19.168838   22.224174   21.089094 H          1 MOL1         0.3682
       3    H2      18.108452   20.976495   21.263370 H          1 MOL1         0.3682
       4    H3      18.381861   22.009062   22.519159 H          1 MOL1         0.3682
       5    C1      19.964296   20.623200   22.232307 C.3        1 MOL1         0.0252
       6    H4      20.714399   21.259557   22.709565 H          1 MOL1         0.0971
       7    H5      20.419784   20.151072   21.357888 H          1 MOL1         0.0971
       8    C2      19.498121   19.539881   23.223128 C.3        1 MOL1        -0.1369
       9    H6      19.005353   20.022807   24.077366 H          1 MOL1         0.0997
      10    H7      18.738443   18.906122   22.748055 H          1 MOL1         0.0997
      11    C3      20.664472   18.665839   23.748172 C.3        1 MOL1        -0.1329
      12    H8      20.264824   17.925972   24.455378 H          1 MOL1         0.0997
      13    H9      21.350671   19.298195   24.328473 H          1 MOL1         0.0997
      14    C4      21.473157   17.930761   22.648666 C.3        1 MOL1        -0.1305
      15    H10     21.968970   18.658300   21.991677 H          1 MOL1         0.0997
      16    H11     22.280332   17.360718   23.129708 H          1 MOL1         0.0997
      17    C5      20.617615   16.962743   21.800139 C.3        1 MOL1        -0.2320
      18    H12     21.251333   16.400972   21.101770 H          1 MOL1         0.1008
      19    H13     20.094301   16.237129   22.436223 H          1 MOL1         0.1008
      20    H14     19.869582   17.501854   21.205630 H          1 MOL1         0.1008
@<TRIPOS>BOND
    1     1     2    1
    2     1     3    1
    3     1     4    1
    4     1     5    1
    5     5     6    1
    6     5     7    1
    7     5     8    1
    8     8     9    1
    9     8    10    1
   10     8    11    1
   11    11    12    1
   12    11    13    1
   13    11    14    1
   14    14    15    1
   15    14    16    1
   16    14    17    1
   17    17    18    1
   18    17    19    1
   19    17    20    1
@<TRIPOS>SUBSTRUCTURE
       1 MOL1            1 RESIDUE      1      MOL     
@<SCITEGIC>MOL_PROPERTY
VConf Rank
SciTegic.value.IntegerValue
150

@<SCITEGIC>MOL_PROPERTY
Conf_Id
SciTegic.value.IntegerValue
64

@<SCITEGIC>MOL_PROPERTY
Delta U+W
SciTegic.value.DoubleValue
0.707

@<SCITEGIC>MOL_PROPERTY
U+W
SciTegic.value.DoubleValue
-11.070

@<SCITEGIC>MOL_PROPERTY
Grad RMS
SciTegic.value.DoubleValue
0.000000

@<SCITEGIC>MOL_PROPERTY
U
SciTegic.value.DoubleValue
47.077

@<SCITEGIC>MOL_PROPERTY
W
SciTegic.value.DoubleValue
-58.148

@<SCITEGIC>MOL_PROPERTY
W(PB)
SciTegic.value.DoubleValue
-60.054

@<SCITEGIC>MOL_PROPERTY
W(SA)
SciTegic.value.DoubleValue
1.906

@<SCITEGIC>MOL_PROPERTY
Valence
SciTegic.value.DoubleValue
2.039

@<SCITEGIC>MOL_PROPERTY
Coulomb
SciTegic.value.DoubleValue
44.655

@<SCITEGIC>MOL_PROPERTY
VdW
SciTegic.value.DoubleValue
0.383

@<SCITEGIC>MOL_PROPERTY
VdW6
SciTegic.value.DoubleValue
-4.912

@<SCITEGIC>MOL_PROPERTY
VdW12
SciTegic.value.DoubleValue
5.295

@<SCITEGIC>MOL_PROPERTY
Bond
SciTegic.value.DoubleValue
0.159

@<SCITEGIC>MOL_PROPERTY
Angle
SciTegic.value.DoubleValue
0.856

@<SCITEGIC>MOL_PROPERTY
Pdih
SciTegic.value.DoubleValue
1.024

@<SCITEGIC>MOL_PROPERTY
Idih
SciTegic.value.DoubleValue
0.000

@<SCITEGIC>MOL_PROPERTY
Tether
SciTegic.value.DoubleValue
0.000

@<TRIPOS>MOLECULE
guest-s11_confgen4.mol2 : confsearch ligand conformer 151
          20          19           1
SMALL
USER_CHARGES
 
@<TRIPOS>ATOM
       1    N1      21.715341   21.262205   21.851136 N.4        1 MOL1        -0.5919
       2    H1      22.201035   21.194229   20.951254 H          1 MOL1         0.3682
       3    H2      20.875272   21.828817   21.697979 H          1 MOL1         0.3682
       4    H3      22.325073   21.797576   22.478107 H          1 MOL1         0.3682
       5    C1      21.382382   19.897391   22.419246 C.3        1 MOL1         0.0252
       6    H4      20.896568   20.045989   23.387176 H          1 MOL1         0.0971
       7    H5      22.321089   19.361632   22.584078 H          1 MOL1         0.0971
       8    C2      20.466322   19.066633   21.500935 C.3        1 MOL1        -0.1369
       9    H6      19.527393   19.607698   21.327396 H          1 MOL1         0.0997
      10    H7      20.945196   18.958764   20.518690 H          1 MOL1         0.0997
      11    C3      20.168107   17.656397   22.068650 C.3        1 MOL1        -0.1329
      12    H8      21.106036   17.085934   22.117173 H          1 MOL1         0.0997
      13    H9      19.522889   17.116894   21.361619 H          1 MOL1         0.0997
      14    C4      19.504857   17.645638   23.469795 C.3        1 MOL1        -0.1305
      15    H10     19.357525   16.601478   23.779482 H          1 MOL1         0.0997
      16    H11     20.181861   18.087318   24.213676 H          1 MOL1         0.0997
      17    C5      18.142043   18.373728   23.510211 C.3        1 MOL1        -0.2320
      18    H12     17.452961   17.963897   22.760424 H          1 MOL1         0.1008
      19    H13     17.673117   18.257428   24.495852 H          1 MOL1         0.1008
      20    H14     18.254150   19.448988   23.323441 H          1 MOL1         0.1008
@<TRIPOS>BOND
    1     1     2    1
    2     1     3    1
    3     1     4    1
    4     1     5    1
    5     5     6    1
    6     5     7    1
    7     5     8    1
    8     8     9    1
    9     8    10    1
   10     8    11    1
   11    11    12    1
   12    11    13    1
   13    11    14    1
   14    14    15    1
   15    14    16    1
   16    14    17    1
   17    17    18    1
   18    17    19    1
   19    17    20    1
@<TRIPOS>SUBSTRUCTURE
       1 MOL1            1 RESIDUE      1      MOL     
@<SCITEGIC>MOL_PROPERTY
VConf Rank
SciTegic.value.IntegerValue
151

@<SCITEGIC>MOL_PROPERTY
Conf_Id
SciTegic.value.IntegerValue
22

@<SCITEGIC>MOL_PROPERTY
Delta U+W
SciTegic.value.DoubleValue
0.731

@<SCITEGIC>MOL_PROPERTY
U+W
SciTegic.value.DoubleValue
-11.047

@<SCITEGIC>MOL_PROPERTY
Grad RMS
SciTegic.value.DoubleValue
0.000000

@<SCITEGIC>MOL_PROPERTY
U
SciTegic.value.DoubleValue
47.078

@<SCITEGIC>MOL_PROPERTY
W
SciTegic.value.DoubleValue
-58.125

@<SCITEGIC>MOL_PROPERTY
W(PB)
SciTegic.value.DoubleValue
-60.031

@<SCITEGIC>MOL_PROPERTY
W(SA)
SciTegic.value.DoubleValue
1.906

@<SCITEGIC>MOL_PROPERTY
Valence
SciTegic.value.DoubleValue
2.039

@<SCITEGIC>MOL_PROPERTY
Coulomb
SciTegic.value.DoubleValue
44.655

@<SCITEGIC>MOL_PROPERTY
VdW
SciTegic.value.DoubleValue
0.383

@<SCITEGIC>MOL_PROPERTY
VdW6
SciTegic.value.DoubleValue
-4.913

@<SCITEGIC>MOL_PROPERTY
VdW12
SciTegic.value.DoubleValue
5.296

@<SCITEGIC>MOL_PROPERTY
Bond
SciTegic.value.DoubleValue
0.159

@<SCITEGIC>MOL_PROPERTY
Angle
SciTegic.value.DoubleValue
0.856

@<SCITEGIC>MOL_PROPERTY
Pdih
SciTegic.value.DoubleValue
1.024

@<SCITEGIC>MOL_PROPERTY
Idih
SciTegic.value.DoubleValue
0.000

@<SCITEGIC>MOL_PROPERTY
Tether
SciTegic.value.DoubleValue
0.000

@<TRIPOS>MOLECULE
guest-s11_confgen4.mol2 : confsearch ligand conformer 152
          20          19           1
SMALL
USER_CHARGES
 
@<TRIPOS>ATOM
       1    N1      21.754861   17.686361   20.841188 N.4        1 MOL1        -0.5919
       2    H1      22.407565   18.385375   20.472825 H          1 MOL1         0.3682
       3    H2      22.312242   16.991643   21.348144 H          1 MOL1         0.3682
       4    H3      21.345719   17.206301   20.032710 H          1 MOL1         0.3682
       5    C1      20.692305   18.312244   21.722016 C.3        1 MOL1         0.0252
       6    H4      20.018700   17.518339   22.055734 H          1 MOL1         0.0971
       7    H5      20.124419   19.014956   21.108038 H          1 MOL1         0.0971
       8    C2      21.275039   19.046197   22.942837 C.3        1 MOL1        -0.1369
       9    H6      21.939467   18.359240   23.483714 H          1 MOL1         0.0997
      10    H7      21.902580   19.880559   22.602518 H          1 MOL1         0.0997
      11    C3      20.202790   19.571152   23.931077 C.3        1 MOL1        -0.1329
      12    H8      20.731101   19.990546   24.798573 H          1 MOL1         0.0997
      13    H9      19.606757   18.735217   24.322623 H          1 MOL1         0.0997
      14    C4      19.271135   20.671608   23.359934 C.3        1 MOL1        -0.1305
      15    H10     18.935050   21.305128   24.192882 H          1 MOL1         0.0997
      16    H11     19.831783   21.333443   22.685109 H          1 MOL1         0.0997
      17    C5      18.013097   20.120704   22.648118 C.3        1 MOL1        -0.2320
      18    H12     18.261389   19.549763   21.747423 H          1 MOL1         0.1008
      19    H13     17.436203   19.468623   23.316689 H          1 MOL1         0.1008
      20    H14     17.356407   20.945213   22.341642 H          1 MOL1         0.1008
@<TRIPOS>BOND
    1     1     2    1
    2     1     3    1
    3     1     4    1
    4     1     5    1
    5     5     6    1
    6     5     7    1
    7     5     8    1
    8     8     9    1
    9     8    10    1
   10     8    11    1
   11    11    12    1
   12    11    13    1
   13    11    14    1
   14    14    15    1
   15    14    16    1
   16    14    17    1
   17    17    18    1
   18    17    19    1
   19    17    20    1
@<TRIPOS>SUBSTRUCTURE
       1 MOL1            1 RESIDUE      1      MOL     
@<SCITEGIC>MOL_PROPERTY
VConf Rank
SciTegic.value.IntegerValue
152

@<SCITEGIC>MOL_PROPERTY
Conf_Id
SciTegic.value.IntegerValue
61

@<SCITEGIC>MOL_PROPERTY
Delta U+W
SciTegic.value.DoubleValue
2.669

@<SCITEGIC>MOL_PROPERTY
U+W
SciTegic.value.DoubleValue
-9.108

@<SCITEGIC>MOL_PROPERTY
Grad RMS
SciTegic.value.DoubleValue
0.000000

@<SCITEGIC>MOL_PROPERTY
U
SciTegic.value.DoubleValue
48.916

@<SCITEGIC>MOL_PROPERTY
W
SciTegic.value.DoubleValue
-58.025

@<SCITEGIC>MOL_PROPERTY
W(PB)
SciTegic.value.DoubleValue
-59.935

@<SCITEGIC>MOL_PROPERTY
W(SA)
SciTegic.value.DoubleValue
1.911

@<SCITEGIC>MOL_PROPERTY
Valence
SciTegic.value.DoubleValue
3.785

@<SCITEGIC>MOL_PROPERTY
Coulomb
SciTegic.value.DoubleValue
44.716

@<SCITEGIC>MOL_PROPERTY
VdW
SciTegic.value.DoubleValue
0.415

@<SCITEGIC>MOL_PROPERTY
VdW6
SciTegic.value.DoubleValue
-4.836

@<SCITEGIC>MOL_PROPERTY
VdW12
SciTegic.value.DoubleValue
5.251

@<SCITEGIC>MOL_PROPERTY
Bond
SciTegic.value.DoubleValue
0.175

@<SCITEGIC>MOL_PROPERTY
Angle
SciTegic.value.DoubleValue
1.195

@<SCITEGIC>MOL_PROPERTY
Pdih
SciTegic.value.DoubleValue
2.415

@<SCITEGIC>MOL_PROPERTY
Idih
SciTegic.value.DoubleValue
0.000

@<SCITEGIC>MOL_PROPERTY
Tether
SciTegic.value.DoubleValue
0.000

@<TRIPOS>MOLECULE
guest-s11_confgen4.mol2 : confsearch ligand conformer 153
          20          19           1
SMALL
USER_CHARGES
 
@<TRIPOS>ATOM
       1    N1      18.763282   19.667931   24.156705 N.4        1 MOL1        -0.5919
       2    H1      18.107253   20.381039   24.492481 H          1 MOL1         0.3682
       3    H2      18.903703   19.007667   24.927830 H          1 MOL1         0.3682
       4    H3      19.658305   20.136136   23.993173 H          1 MOL1         0.3682
       5    C1      18.249456   18.974877   22.909215 C.3        1 MOL1         0.0252
       6    H4      18.063263   19.731024   22.141810 H          1 MOL1         0.0971
       7    H5      17.291836   18.516919   23.171510 H          1 MOL1         0.0971
       8    C2      19.190127   17.884981   22.353570 C.3        1 MOL1        -0.1369
       9    H6      19.595181   17.281713   23.176864 H          1 MOL1         0.0997
      10    H7      18.583939   17.198371   21.747786 H          1 MOL1         0.0997
      11    C3      20.338336   18.419073   21.459069 C.3        1 MOL1        -0.1329
      12    H8      19.913715   18.970533   20.608743 H          1 MOL1         0.0997
      13    H9      20.866697   17.556360   21.030069 H          1 MOL1         0.0997
      14    C4      21.361477   19.315119   22.195681 C.3        1 MOL1        -0.1305
      15    H10     20.886058   20.255312   22.502054 H          1 MOL1         0.0997
      16    H11     21.710536   18.811716   23.108196 H          1 MOL1         0.0997
      17    C5      22.574592   19.646919   21.300539 C.3        1 MOL1        -0.2320
      18    H12     23.285819   20.290713   21.834144 H          1 MOL1         0.1008
      19    H13     23.106762   18.734587   21.001092 H          1 MOL1         0.1008
      20    H14     22.260960   20.174040   20.390017 H          1 MOL1         0.1008
@<TRIPOS>BOND
    1     1     2    1
    2     1     3    1
    3     1     4    1
    4     1     5    1
    5     5     6    1
    6     5     7    1
    7     5     8    1
    8     8     9    1
    9     8    10    1
   10     8    11    1
   11    11    12    1
   12    11    13    1
   13    11    14    1
   14    14    15    1
   15    14    16    1
   16    14    17    1
   17    17    18    1
   18    17    19    1
   19    17    20    1
@<TRIPOS>SUBSTRUCTURE
       1 MOL1            1 RESIDUE      1      MOL     
@<SCITEGIC>MOL_PROPERTY
VConf Rank
SciTegic.value.IntegerValue
153

@<SCITEGIC>MOL_PROPERTY
Conf_Id
SciTegic.value.IntegerValue
69

@<SCITEGIC>MOL_PROPERTY
Delta U+W
SciTegic.value.DoubleValue
2.811

@<SCITEGIC>MOL_PROPERTY
U+W
SciTegic.value.DoubleValue
-8.967

@<SCITEGIC>MOL_PROPERTY
Grad RMS
SciTegic.value.DoubleValue
0.000000

@<SCITEGIC>MOL_PROPERTY
U
SciTegic.value.DoubleValue
49.216

@<SCITEGIC>MOL_PROPERTY
W
SciTegic.value.DoubleValue
-58.183

@<SCITEGIC>MOL_PROPERTY
W(PB)
SciTegic.value.DoubleValue
-60.064

@<SCITEGIC>MOL_PROPERTY
W(SA)
SciTegic.value.DoubleValue
1.881

@<SCITEGIC>MOL_PROPERTY
Valence
SciTegic.value.DoubleValue
2.929

@<SCITEGIC>MOL_PROPERTY
Coulomb
SciTegic.value.DoubleValue
46.006

@<SCITEGIC>MOL_PROPERTY
VdW
SciTegic.value.DoubleValue
0.281

@<SCITEGIC>MOL_PROPERTY
VdW6
SciTegic.value.DoubleValue
-4.909

@<SCITEGIC>MOL_PROPERTY
VdW12
SciTegic.value.DoubleValue
5.190

@<SCITEGIC>MOL_PROPERTY
Bond
SciTegic.value.DoubleValue
0.156

@<SCITEGIC>MOL_PROPERTY
Angle
SciTegic.value.DoubleValue
0.974

@<SCITEGIC>MOL_PROPERTY
Pdih
SciTegic.value.DoubleValue
1.799

@<SCITEGIC>MOL_PROPERTY
Idih
SciTegic.value.DoubleValue
0.000

@<SCITEGIC>MOL_PROPERTY
Tether
SciTegic.value.DoubleValue
0.000

@<TRIPOS>MOLECULE
guest-s11_confgen4.mol2 : confsearch ligand conformer 154
          20          19           1
SMALL
USER_CHARGES
 
@<TRIPOS>ATOM
       1    N1      22.161385   18.227827   22.646827 N.4        1 MOL1        -0.5919
       2    H1      21.328625   17.773156   23.029991 H          1 MOL1         0.3682
       3    H2      22.390980   17.749329   21.770111 H          1 MOL1         0.3682
       4    H3      22.932247   18.041749   23.297049 H          1 MOL1         0.3682
       5    C1      21.949892   19.715087   22.437308 C.3        1 MOL1         0.0252
       6    H4      22.886552   20.116713   22.041175 H          1 MOL1         0.0971
       7    H5      21.766578   20.181557   23.408977 H          1 MOL1         0.0971
       8    C2      20.804233   20.064032   21.464078 C.3        1 MOL1        -0.1369
       9    H6      20.992744   21.073566   21.075263 H          1 MOL1         0.0997
      10    H7      20.833604   19.396100   20.592976 H          1 MOL1         0.0997
      11    C3      19.391417   20.057819   22.102580 C.3        1 MOL1        -0.1329
      12    H8      18.677126   20.430213   21.355191 H          1 MOL1         0.0997
      13    H9      19.362897   20.774118   22.935387 H          1 MOL1         0.0997
      14    C4      18.917680   18.671427   22.598365 C.3        1 MOL1        -0.1305
      15    H10     19.044926   17.925741   21.801055 H          1 MOL1         0.0997
      16    H11     19.528962   18.347505   23.449988 H          1 MOL1         0.0997
      17    C5      17.438261   18.700168   23.038267 C.3        1 MOL1        -0.2320
      18    H12     16.782699   18.981852   22.203932 H          1 MOL1         0.1008
      19    H13     17.120719   17.712132   23.396042 H          1 MOL1         0.1008
      20    H14     17.282546   19.419293   23.853057 H          1 MOL1         0.1008
@<TRIPOS>BOND
    1     1     2    1
    2     1     3    1
    3     1     4    1
    4     1     5    1
    5     5     6    1
    6     5     7    1
    7     5     8    1
    8     8     9    1
    9     8    10    1
   10     8    11    1
   11    11    12    1
   12    11    13    1
   13    11    14    1
   14    14    15    1
   15    14    16    1
   16    14    17    1
   17    17    18    1
   18    17    19    1
   19    17    20    1
@<TRIPOS>SUBSTRUCTURE
       1 MOL1            1 RESIDUE      1      MOL     
@<SCITEGIC>MOL_PROPERTY
VConf Rank
SciTegic.value.IntegerValue
154

@<SCITEGIC>MOL_PROPERTY
Conf_Id
SciTegic.value.IntegerValue
26

@<SCITEGIC>MOL_PROPERTY
Delta U+W
SciTegic.value.DoubleValue
2.809

@<SCITEGIC>MOL_PROPERTY
U+W
SciTegic.value.DoubleValue
-8.969

@<SCITEGIC>MOL_PROPERTY
Grad RMS
SciTegic.value.DoubleValue
0.000000

@<SCITEGIC>MOL_PROPERTY
U
SciTegic.value.DoubleValue
49.216

@<SCITEGIC>MOL_PROPERTY
W
SciTegic.value.DoubleValue
-58.185

@<SCITEGIC>MOL_PROPERTY
W(PB)
SciTegic.value.DoubleValue
-60.088

@<SCITEGIC>MOL_PROPERTY
W(SA)
SciTegic.value.DoubleValue
1.903

@<SCITEGIC>MOL_PROPERTY
Valence
SciTegic.value.DoubleValue
2.929

@<SCITEGIC>MOL_PROPERTY
Coulomb
SciTegic.value.DoubleValue
46.006

@<SCITEGIC>MOL_PROPERTY
VdW
SciTegic.value.DoubleValue
0.281

@<SCITEGIC>MOL_PROPERTY
VdW6
SciTegic.value.DoubleValue
-4.909

@<SCITEGIC>MOL_PROPERTY
VdW12
SciTegic.value.DoubleValue
5.190

@<SCITEGIC>MOL_PROPERTY
Bond
SciTegic.value.DoubleValue
0.156

@<SCITEGIC>MOL_PROPERTY
Angle
SciTegic.value.DoubleValue
0.974

@<SCITEGIC>MOL_PROPERTY
Pdih
SciTegic.value.DoubleValue
1.799

@<SCITEGIC>MOL_PROPERTY
Idih
SciTegic.value.DoubleValue
0.000

@<SCITEGIC>MOL_PROPERTY
Tether
SciTegic.value.DoubleValue
0.000

@<TRIPOS>MOLECULE
guest-s11_confgen4.mol2 : confsearch ligand conformer 155
          20          19           1
SMALL
USER_CHARGES
 
@<TRIPOS>ATOM
       1    N1      20.435393   17.647555   24.316007 N.4        1 MOL1        -0.5919
       2    H1      20.191613   18.559238   24.713929 H          1 MOL1         0.3682
       3    H2      19.663329   17.008198   24.528556 H          1 MOL1         0.3682
       4    H3      21.255473   17.305669   24.827761 H          1 MOL1         0.3682
       5    C1      20.698300   17.738137   22.825479 C.3        1 MOL1         0.0252
       6    H4      20.981394   16.741499   22.476082 H          1 MOL1         0.0971
       7    H5      21.549594   18.406111   22.670429 H          1 MOL1         0.0971
       8    C2      19.488249   18.240904   22.012279 C.3        1 MOL1        -0.1369
       9    H6      19.739013   18.202494   20.944490 H          1 MOL1         0.0997
      10    H7      18.649960   17.544867   22.148076 H          1 MOL1         0.0997
      11    C3      19.027746   19.674054   22.387797 C.3        1 MOL1        -0.1329
      12    H8      18.624337   19.670227   23.409293 H          1 MOL1         0.0997
      13    H9      18.188003   19.957074   21.738236 H          1 MOL1         0.0997
      14    C4      20.130746   20.758673   22.287668 C.3        1 MOL1        -0.1305
      15    H10     19.702913   21.723266   22.594867 H          1 MOL1         0.0997
      16    H11     20.938729   20.546561   23.000878 H          1 MOL1         0.0997
      17    C5      20.718882   20.905451   20.865911 C.3        1 MOL1        -0.2320
      18    H12     19.928409   21.101835   20.130011 H          1 MOL1         0.1008
      19    H13     21.428195   21.742290   20.827697 H          1 MOL1         0.1008
      20    H14     21.258591   20.001292   20.557994 H          1 MOL1         0.1008
@<TRIPOS>BOND
    1     1     2    1
    2     1     3    1
    3     1     4    1
    4     1     5    1
    5     5     6    1
    6     5     7    1
    7     5     8    1
    8     8     9    1
    9     8    10    1
   10     8    11    1
   11    11    12    1
   12    11    13    1
   13    11    14    1
   14    14    15    1
   15    14    16    1
   16    14    17    1
   17    17    18    1
   18    17    19    1
   19    17    20    1
@<TRIPOS>SUBSTRUCTURE
       1 MOL1            1 RESIDUE      1      MOL     
@<SCITEGIC>MOL_PROPERTY
VConf Rank
SciTegic.value.IntegerValue
155

@<SCITEGIC>MOL_PROPERTY
Conf_Id
SciTegic.value.IntegerValue
2

@<SCITEGIC>MOL_PROPERTY
Delta U+W
SciTegic.value.DoubleValue
0.994

@<SCITEGIC>MOL_PROPERTY
U+W
SciTegic.value.DoubleValue
-10.784

@<SCITEGIC>MOL_PROPERTY
Grad RMS
SciTegic.value.DoubleValue
0.000000

@<SCITEGIC>MOL_PROPERTY
U
SciTegic.value.DoubleValue
47.562

@<SCITEGIC>MOL_PROPERTY
W
SciTegic.value.DoubleValue
-58.346

@<SCITEGIC>MOL_PROPERTY
W(PB)
SciTegic.value.DoubleValue
-60.221

@<SCITEGIC>MOL_PROPERTY
W(SA)
SciTegic.value.DoubleValue
1.875

@<SCITEGIC>MOL_PROPERTY
Valence
SciTegic.value.DoubleValue
2.149

@<SCITEGIC>MOL_PROPERTY
Coulomb
SciTegic.value.DoubleValue
45.034

@<SCITEGIC>MOL_PROPERTY
VdW
SciTegic.value.DoubleValue
0.378

@<SCITEGIC>MOL_PROPERTY
VdW6
SciTegic.value.DoubleValue
-5.599

@<SCITEGIC>MOL_PROPERTY
VdW12
SciTegic.value.DoubleValue
5.977

@<SCITEGIC>MOL_PROPERTY
Bond
SciTegic.value.DoubleValue
0.185

@<SCITEGIC>MOL_PROPERTY
Angle
SciTegic.value.DoubleValue
0.935

@<SCITEGIC>MOL_PROPERTY
Pdih
SciTegic.value.DoubleValue
1.028

@<SCITEGIC>MOL_PROPERTY
Idih
SciTegic.value.DoubleValue
0.000

@<SCITEGIC>MOL_PROPERTY
Tether
SciTegic.value.DoubleValue
0.000

@<TRIPOS>MOLECULE
guest-s11_confgen4.mol2 : confsearch ligand conformer 156
          20          19           1
SMALL
USER_CHARGES
 
@<TRIPOS>ATOM
       1    N1      19.910499   21.015028   23.895572 N.4        1 MOL1        -0.5919
       2    H1      20.488421   21.053601   24.740886 H          1 MOL1         0.3682
       3    H2      20.503204   21.300161   23.110498 H          1 MOL1         0.3682
       4    H3      19.183104   21.730301   23.998481 H          1 MOL1         0.3682
       5    C1      19.318604   19.635870   23.679748 C.3        1 MOL1         0.0252
       6    H4      18.690484   19.671612   22.785813 H          1 MOL1         0.0971
       7    H5      18.677009   19.411092   24.536100 H          1 MOL1         0.0971
       8    C2      20.376729   18.524363   23.527399 C.3        1 MOL1        -0.1369
       9    H6      20.979771   18.474424   24.443633 H          1 MOL1         0.0997
      10    H7      19.864825   17.556397   23.453047 H          1 MOL1         0.0997
      11    C3      21.316556   18.711454   22.307270 C.3        1 MOL1        -0.1329
      12    H8      22.009871   17.860334   22.261349 H          1 MOL1         0.0997
      13    H9      21.945312   19.597951   22.465373 H          1 MOL1         0.0997
      14    C4      20.592403   18.846344   20.943290 C.3        1 MOL1        -0.1305
      15    H10     19.965384   19.748141   20.933010 H          1 MOL1         0.0997
      16    H11     21.347419   18.995120   20.158646 H          1 MOL1         0.0997
      17    C5      19.733982   17.613356   20.580397 C.3        1 MOL1        -0.2320
      18    H12     18.893356   17.489495   21.274378 H          1 MOL1         0.1008
      19    H13     19.315778   17.719548   19.571083 H          1 MOL1         0.1008
      20    H14     20.334502   16.694683   20.599753 H          1 MOL1         0.1008
@<TRIPOS>BOND
    1     1     2    1
    2     1     3    1
    3     1     4    1
    4     1     5    1
    5     5     6    1
    6     5     7    1
    7     5     8    1
    8     8     9    1
    9     8    10    1
   10     8    11    1
   11    11    12    1
   12    11    13    1
   13    11    14    1
   14    14    15    1
   15    14    16    1
   16    14    17    1
   17    17    18    1
   18    17    19    1
   19    17    20    1
@<TRIPOS>SUBSTRUCTURE
       1 MOL1            1 RESIDUE      1      MOL     
@<SCITEGIC>MOL_PROPERTY
VConf Rank
SciTegic.value.IntegerValue
156

@<SCITEGIC>MOL_PROPERTY
Conf_Id
SciTegic.value.IntegerValue
1

@<SCITEGIC>MOL_PROPERTY
Delta U+W
SciTegic.value.DoubleValue
1.032

@<SCITEGIC>MOL_PROPERTY
U+W
SciTegic.value.DoubleValue
-10.746

@<SCITEGIC>MOL_PROPERTY
Grad RMS
SciTegic.value.DoubleValue
0.000000

@<SCITEGIC>MOL_PROPERTY
U
SciTegic.value.DoubleValue
47.562

@<SCITEGIC>MOL_PROPERTY
W
SciTegic.value.DoubleValue
-58.308

@<SCITEGIC>MOL_PROPERTY
W(PB)
SciTegic.value.DoubleValue
-60.184

@<SCITEGIC>MOL_PROPERTY
W(SA)
SciTegic.value.DoubleValue
1.877

@<SCITEGIC>MOL_PROPERTY
Valence
SciTegic.value.DoubleValue
2.149

@<SCITEGIC>MOL_PROPERTY
Coulomb
SciTegic.value.DoubleValue
45.035

@<SCITEGIC>MOL_PROPERTY
VdW
SciTegic.value.DoubleValue
0.378

@<SCITEGIC>MOL_PROPERTY
VdW6
SciTegic.value.DoubleValue
-5.599

@<SCITEGIC>MOL_PROPERTY
VdW12
SciTegic.value.DoubleValue
5.978

@<SCITEGIC>MOL_PROPERTY
Bond
SciTegic.value.DoubleValue
0.185

@<SCITEGIC>MOL_PROPERTY
Angle
SciTegic.value.DoubleValue
0.935

@<SCITEGIC>MOL_PROPERTY
Pdih
SciTegic.value.DoubleValue
1.028

@<SCITEGIC>MOL_PROPERTY
Idih
SciTegic.value.DoubleValue
0.000

@<SCITEGIC>MOL_PROPERTY
Tether
SciTegic.value.DoubleValue
0.000

@<TRIPOS>MOLECULE
guest-s11_confgen4.mol2 : confsearch ligand conformer 157
          20          19           1
SMALL
USER_CHARGES
 
@<TRIPOS>ATOM
       1    N1      19.736415   17.391025   23.977209 N.4        1 MOL1        -0.5919
       2    H1      19.738497   17.590767   24.982291 H          1 MOL1         0.3682
       3    H2      18.855244   17.750313   23.598879 H          1 MOL1         0.3682
       4    H3      19.711747   16.370965   23.876140 H          1 MOL1         0.3682
       5    C1      20.938363   17.997069   23.278791 C.3        1 MOL1         0.0252
       6    H4      20.889073   17.720861   22.224371 H          1 MOL1         0.0971
       7    H5      21.833158   17.535797   23.705515 H          1 MOL1         0.0971
       8    C2      21.039207   19.530075   23.428582 C.3        1 MOL1        -0.1369
       9    H6      21.076380   19.765644   24.500471 H          1 MOL1         0.0997
      10    H7      21.995269   19.873973   23.012290 H          1 MOL1         0.0997
      11    C3      19.873390   20.324342   22.780251 C.3        1 MOL1        -0.1329
      12    H8      19.810854   21.299799   23.282243 H          1 MOL1         0.0997
      13    H9      18.912370   19.832276   22.977821 H          1 MOL1         0.0997
      14    C4      20.027691   20.594548   21.261299 C.3        1 MOL1        -0.1305
      15    H10     19.196478   21.237739   20.939838 H          1 MOL1         0.0997
      16    H11     20.944810   21.171925   21.078787 H          1 MOL1         0.0997
      17    C5      20.035322   19.326150   20.379801 C.3        1 MOL1        -0.2320
      18    H12     19.189640   18.668669   20.619179 H          1 MOL1         0.1008
      19    H13     19.958513   19.597962   19.319071 H          1 MOL1         0.1008
      20    H14     20.966867   18.760862   20.501159 H          1 MOL1         0.1008
@<TRIPOS>BOND
    1     1     2    1
    2     1     3    1
    3     1     4    1
    4     1     5    1
    5     5     6    1
    6     5     7    1
    7     5     8    1
    8     8     9    1
    9     8    10    1
   10     8    11    1
   11    11    12    1
   12    11    13    1
   13    11    14    1
   14    14    15    1
   15    14    16    1
   16    14    17    1
   17    17    18    1
   18    17    19    1
   19    17    20    1
@<TRIPOS>SUBSTRUCTURE
       1 MOL1            1 RESIDUE      1      MOL     
@<SCITEGIC>MOL_PROPERTY
VConf Rank
SciTegic.value.IntegerValue
157

@<SCITEGIC>MOL_PROPERTY
Conf_Id
SciTegic.value.IntegerValue
80

@<SCITEGIC>MOL_PROPERTY
Delta U+W
SciTegic.value.DoubleValue
2.920

@<SCITEGIC>MOL_PROPERTY
U+W
SciTegic.value.DoubleValue
-8.857

@<SCITEGIC>MOL_PROPERTY
Grad RMS
SciTegic.value.DoubleValue
0.000000

@<SCITEGIC>MOL_PROPERTY
U
SciTegic.value.DoubleValue
49.434

@<SCITEGIC>MOL_PROPERTY
W
SciTegic.value.DoubleValue
-58.292

@<SCITEGIC>MOL_PROPERTY
W(PB)
SciTegic.value.DoubleValue
-60.170

@<SCITEGIC>MOL_PROPERTY
W(SA)
SciTegic.value.DoubleValue
1.879

@<SCITEGIC>MOL_PROPERTY
Valence
SciTegic.value.DoubleValue
3.798

@<SCITEGIC>MOL_PROPERTY
Coulomb
SciTegic.value.DoubleValue
45.253

@<SCITEGIC>MOL_PROPERTY
VdW
SciTegic.value.DoubleValue
0.384

@<SCITEGIC>MOL_PROPERTY
VdW6
SciTegic.value.DoubleValue
-5.595

@<SCITEGIC>MOL_PROPERTY
VdW12
SciTegic.value.DoubleValue
5.979

@<SCITEGIC>MOL_PROPERTY
Bond
SciTegic.value.DoubleValue
0.198

@<SCITEGIC>MOL_PROPERTY
Angle
SciTegic.value.DoubleValue
1.368

@<SCITEGIC>MOL_PROPERTY
Pdih
SciTegic.value.DoubleValue
2.231

@<SCITEGIC>MOL_PROPERTY
Idih
SciTegic.value.DoubleValue
0.000

@<SCITEGIC>MOL_PROPERTY
Tether
SciTegic.value.DoubleValue
0.000

@<TRIPOS>MOLECULE
guest-s11_confgen4.mol2 : confsearch ligand conformer 158
          20          19           1
SMALL
USER_CHARGES
 
@<TRIPOS>ATOM
       1    N1      19.834108   21.334195   21.610646 N.4        1 MOL1        -0.5919
       2    H1      19.261956   21.430289   20.765958 H          1 MOL1         0.3682
       3    H2      19.946022   22.274720   22.003372 H          1 MOL1         0.3682
       4    H3      20.762965   21.021908   21.313342 H          1 MOL1         0.3682
       5    C1      19.210714   20.377799   22.608866 C.3        1 MOL1         0.0252
       6    H4      18.246978   20.798315   22.908704 H          1 MOL1         0.0971
       7    H5      19.852238   20.347254   23.490926 H          1 MOL1         0.0971
       8    C2      18.990815   18.953959   22.054744 C.3        1 MOL1        -0.1369
       9    H6      18.421771   18.363492   22.784920 H          1 MOL1         0.0997
      10    H7      18.350717   19.029782   21.165731 H          1 MOL1         0.0997
      11    C3      20.291586   18.196976   21.673569 C.3        1 MOL1        -0.1329
      12    H8      20.992372   18.866230   21.158090 H          1 MOL1         0.0997
      13    H9      20.028247   17.425781   20.936456 H          1 MOL1         0.0997
      14    C4      21.007016   17.486363   22.851377 C.3        1 MOL1        -0.1305
      15    H10     20.331166   16.747376   23.304044 H          1 MOL1         0.0997
      16    H11     21.852793   16.913823   22.445414 H          1 MOL1         0.0997
      17    C5      21.538796   18.435502   23.947860 C.3        1 MOL1        -0.2320
      18    H12     20.719668   18.861996   24.538777 H          1 MOL1         0.1008
      19    H13     22.188313   17.888918   24.643778 H          1 MOL1         0.1008
      20    H14     22.126289   19.255568   23.515306 H          1 MOL1         0.1008
@<TRIPOS>BOND
    1     1     2    1
    2     1     3    1
    3     1     4    1
    4     1     5    1
    5     5     6    1
    6     5     7    1
    7     5     8    1
    8     8     9    1
    9     8    10    1
   10     8    11    1
   11    11    12    1
   12    11    13    1
   13    11    14    1
   14    14    15    1
   15    14    16    1
   16    14    17    1
   17    17    18    1
   18    17    19    1
   19    17    20    1
@<TRIPOS>SUBSTRUCTURE
       1 MOL1            1 RESIDUE      1      MOL     
@<SCITEGIC>MOL_PROPERTY
VConf Rank
SciTegic.value.IntegerValue
158

@<SCITEGIC>MOL_PROPERTY
Conf_Id
SciTegic.value.IntegerValue
65

@<SCITEGIC>MOL_PROPERTY
Delta U+W
SciTegic.value.DoubleValue
2.949

@<SCITEGIC>MOL_PROPERTY
U+W
SciTegic.value.DoubleValue
-8.829

@<SCITEGIC>MOL_PROPERTY
Grad RMS
SciTegic.value.DoubleValue
0.000000

@<SCITEGIC>MOL_PROPERTY
U
SciTegic.value.DoubleValue
49.435

@<SCITEGIC>MOL_PROPERTY
W
SciTegic.value.DoubleValue
-58.263

@<SCITEGIC>MOL_PROPERTY
W(PB)
SciTegic.value.DoubleValue
-60.125

@<SCITEGIC>MOL_PROPERTY
W(SA)
SciTegic.value.DoubleValue
1.862

@<SCITEGIC>MOL_PROPERTY
Valence
SciTegic.value.DoubleValue
3.797

@<SCITEGIC>MOL_PROPERTY
Coulomb
SciTegic.value.DoubleValue
45.253

@<SCITEGIC>MOL_PROPERTY
VdW
SciTegic.value.DoubleValue
0.384

@<SCITEGIC>MOL_PROPERTY
VdW6
SciTegic.value.DoubleValue
-5.596

@<SCITEGIC>MOL_PROPERTY
VdW12
SciTegic.value.DoubleValue
5.980

@<SCITEGIC>MOL_PROPERTY
Bond
SciTegic.value.DoubleValue
0.198

@<SCITEGIC>MOL_PROPERTY
Angle
SciTegic.value.DoubleValue
1.369

@<SCITEGIC>MOL_PROPERTY
Pdih
SciTegic.value.DoubleValue
2.230

@<SCITEGIC>MOL_PROPERTY
Idih
SciTegic.value.DoubleValue
0.000

@<SCITEGIC>MOL_PROPERTY
Tether
SciTegic.value.DoubleValue
0.000

@<TRIPOS>MOLECULE
guest-s11_confgen4.mol2 : confsearch ligand conformer 159
          20          19           1
SMALL
USER_CHARGES
 
@<TRIPOS>ATOM
       1    N1      19.363842   19.446132   24.268004 N.4        1 MOL1        -0.5919
       2    H1      18.565701   19.914270   24.710158 H          1 MOL1         0.3682
       3    H2      18.987985   18.762988   23.603346 H          1 MOL1         0.3682
       4    H3      19.846886   18.921595   25.004166 H          1 MOL1         0.3682
       5    C1      20.287809   20.434063   23.582561 C.3        1 MOL1         0.0252
       6    H4      20.646521   21.122871   24.352230 H          1 MOL1         0.0971
       7    H5      19.708695   21.009684   22.855589 H          1 MOL1         0.0971
       8    C2      21.499555   19.780466   22.887657 C.3        1 MOL1        -0.1369
       9    H6      22.285344   20.542578   22.800866 H          1 MOL1         0.0997
      10    H7      21.916835   18.993752   23.530127 H          1 MOL1         0.0997
      11    C3      21.224111   19.220763   21.466135 C.3        1 MOL1        -0.1329
      12    H8      22.176831   18.839124   21.073450 H          1 MOL1         0.0997
      13    H9      20.935545   20.038449   20.791165 H          1 MOL1         0.0997
      14    C4      20.181607   18.076178   21.391103 C.3        1 MOL1        -0.1305
      15    H10     20.494643   17.368388   20.610526 H          1 MOL1         0.0997
      16    H11     20.175295   17.500076   22.326159 H          1 MOL1         0.0997
      17    C5      18.759467   18.571803   21.036572 C.3        1 MOL1        -0.2320
      18    H12     18.397443   19.338537   21.729864 H          1 MOL1         0.1008
      19    H13     18.742343   19.006074   20.028387 H          1 MOL1         0.1008
      20    H14     18.044967   17.738428   21.049041 H          1 MOL1         0.1008
@<TRIPOS>BOND
    1     1     2    1
    2     1     3    1
    3     1     4    1
    4     1     5    1
    5     5     6    1
    6     5     7    1
    7     5     8    1
    8     8     9    1
    9     8    10    1
   10     8    11    1
   11    11    12    1
   12    11    13    1
   13    11    14    1
   14    14    15    1
   15    14    16    1
   16    14    17    1
   17    17    18    1
   18    17    19    1
   19    17    20    1
@<TRIPOS>SUBSTRUCTURE
       1 MOL1            1 RESIDUE      1      MOL     
@<SCITEGIC>MOL_PROPERTY
VConf Rank
SciTegic.value.IntegerValue
159

@<SCITEGIC>MOL_PROPERTY
Conf_Id
SciTegic.value.IntegerValue
77

@<SCITEGIC>MOL_PROPERTY
Delta U+W
SciTegic.value.DoubleValue
5.366

@<SCITEGIC>MOL_PROPERTY
U+W
SciTegic.value.DoubleValue
-6.412

@<SCITEGIC>MOL_PROPERTY
Grad RMS
SciTegic.value.DoubleValue
0.000000

@<SCITEGIC>MOL_PROPERTY
U
SciTegic.value.DoubleValue
51.542

@<SCITEGIC>MOL_PROPERTY
W
SciTegic.value.DoubleValue
-57.954

@<SCITEGIC>MOL_PROPERTY
W(PB)
SciTegic.value.DoubleValue
-59.811

@<SCITEGIC>MOL_PROPERTY
W(SA)
SciTegic.value.DoubleValue
1.857

@<SCITEGIC>MOL_PROPERTY
Valence
SciTegic.value.DoubleValue
5.347

@<SCITEGIC>MOL_PROPERTY
Coulomb
SciTegic.value.DoubleValue
45.870

@<SCITEGIC>MOL_PROPERTY
VdW
SciTegic.value.DoubleValue
0.325

@<SCITEGIC>MOL_PROPERTY
VdW6
SciTegic.value.DoubleValue
-6.161

@<SCITEGIC>MOL_PROPERTY
VdW12
SciTegic.value.DoubleValue
6.486

@<SCITEGIC>MOL_PROPERTY
Bond
SciTegic.value.DoubleValue
0.201

@<SCITEGIC>MOL_PROPERTY
Angle
SciTegic.value.DoubleValue
1.484

@<SCITEGIC>MOL_PROPERTY
Pdih
SciTegic.value.DoubleValue
3.662

@<SCITEGIC>MOL_PROPERTY
Idih
SciTegic.value.DoubleValue
0.000

@<SCITEGIC>MOL_PROPERTY
Tether
SciTegic.value.DoubleValue
0.000

@<TRIPOS>MOLECULE
guest-s11_confgen4.mol2 : confsearch ligand conformer 160
          20          19           1
SMALL
USER_CHARGES
 
@<TRIPOS>ATOM
       1    N1      19.208231   17.642676   21.469689 N.4        1 MOL1        -0.5919
       2    H1      18.757811   17.959399   20.605273 H          1 MOL1         0.3682
       3    H2      20.217809   17.772186   21.352614 H          1 MOL1         0.3682
       4    H3      19.035432   16.634549   21.543877 H          1 MOL1         0.3682
       5    C1      18.691143   18.393853   22.681263 C.3        1 MOL1         0.0252
       6    H4      19.153746   17.973620   23.578260 H          1 MOL1         0.0971
       7    H5      17.614898   18.208969   22.736345 H          1 MOL1         0.0971
       8    C2      18.938456   19.915167   22.627875 C.3        1 MOL1        -0.1369
       9    H6      18.727185   20.290957   21.617946 H          1 MOL1         0.0997
      10    H7      18.201876   20.396088   23.285124 H          1 MOL1         0.0997
      11    C3      20.349941   20.372147   23.084759 C.3        1 MOL1        -0.1329
      12    H8      20.504318   20.111370   24.140992 H          1 MOL1         0.0997
      13    H9      20.366999   21.470294   23.048600 H          1 MOL1         0.0997
      14    C4      21.530253   19.845804   22.228986 C.3        1 MOL1        -0.1305
      15    H10     21.208375   19.677135   21.192546 H          1 MOL1         0.0997
      16    H11     22.299920   20.628737   22.175251 H          1 MOL1         0.0997
      17    C5      22.188816   18.575630   22.817860 C.3        1 MOL1        -0.2320
      18    H12     22.980847   18.206798   22.153155 H          1 MOL1         0.1008
      19    H13     22.649476   18.795114   23.789941 H          1 MOL1         0.1008
      20    H14     21.470344   17.763377   22.971602 H          1 MOL1         0.1008
@<TRIPOS>BOND
    1     1     2    1
    2     1     3    1
    3     1     4    1
    4     1     5    1
    5     5     6    1
    6     5     7    1
    7     5     8    1
    8     8     9    1
    9     8    10    1
   10     8    11    1
   11    11    12    1
   12    11    13    1
   13    11    14    1
   14    14    15    1
   15    14    16    1
   16    14    17    1
   17    17    18    1
   18    17    19    1
   19    17    20    1
@<TRIPOS>SUBSTRUCTURE
       1 MOL1            1 RESIDUE      1      MOL     
@<SCITEGIC>MOL_PROPERTY
VConf Rank
SciTegic.value.IntegerValue
160

@<SCITEGIC>MOL_PROPERTY
Conf_Id
SciTegic.value.IntegerValue
67

@<SCITEGIC>MOL_PROPERTY
Delta U+W
SciTegic.value.DoubleValue
5.353

@<SCITEGIC>MOL_PROPERTY
U+W
SciTegic.value.DoubleValue
-6.425

@<SCITEGIC>MOL_PROPERTY
Grad RMS
SciTegic.value.DoubleValue
0.000000

@<SCITEGIC>MOL_PROPERTY
U
SciTegic.value.DoubleValue
51.541

@<SCITEGIC>MOL_PROPERTY
W
SciTegic.value.DoubleValue
-57.966

@<SCITEGIC>MOL_PROPERTY
W(PB)
SciTegic.value.DoubleValue
-59.821

@<SCITEGIC>MOL_PROPERTY
W(SA)
SciTegic.value.DoubleValue
1.855

@<SCITEGIC>MOL_PROPERTY
Valence
SciTegic.value.DoubleValue
5.347

@<SCITEGIC>MOL_PROPERTY
Coulomb
SciTegic.value.DoubleValue
45.870

@<SCITEGIC>MOL_PROPERTY
VdW
SciTegic.value.DoubleValue
0.325

@<SCITEGIC>MOL_PROPERTY
VdW6
SciTegic.value.DoubleValue
-6.161

@<SCITEGIC>MOL_PROPERTY
VdW12
SciTegic.value.DoubleValue
6.486

@<SCITEGIC>MOL_PROPERTY
Bond
SciTegic.value.DoubleValue
0.201

@<SCITEGIC>MOL_PROPERTY
Angle
SciTegic.value.DoubleValue
1.485

@<SCITEGIC>MOL_PROPERTY
Pdih
SciTegic.value.DoubleValue
3.662

@<SCITEGIC>MOL_PROPERTY
Idih
SciTegic.value.DoubleValue
0.000

@<SCITEGIC>MOL_PROPERTY
Tether
SciTegic.value.DoubleValue
0.000

@<TRIPOS>MOLECULE
guest-s11_confgen4.mol2 : confsearch ligand conformer 161
          20          19           1
SMALL
USER_CHARGES
 
@<TRIPOS>ATOM
       1    N1      20.012849   17.406790   19.752545 N.4        1 MOL1        -0.5919
       2    H1      19.107279   16.955552   19.915988 H          1 MOL1         0.3682
       3    H2      20.079529   17.582722   18.744477 H          1 MOL1         0.3682
       4    H3      20.737649   16.719698   19.982668 H          1 MOL1         0.3682
       5    C1      20.164324   18.681553   20.557855 C.3        1 MOL1         0.0252
       6    H4      19.381653   19.376104   20.240772 H          1 MOL1         0.0971
       7    H5      21.134363   19.122456   20.312611 H          1 MOL1         0.0971
       8    C2      20.068885   18.452363   22.076943 C.3        1 MOL1        -0.1369
       9    H6      19.099747   17.994861   22.316799 H          1 MOL1         0.0997
      10    H7      20.846419   17.742082   22.388408 H          1 MOL1         0.0997
      11    C3      20.228134   19.774599   22.859926 C.3        1 MOL1        -0.1329
      12    H8      19.451904   20.484677   22.542047 H          1 MOL1         0.0997
      13    H9      21.196519   20.232167   22.613642 H          1 MOL1         0.0997
      14    C4      20.133922   19.556626   24.386736 C.3        1 MOL1        -0.1305
      15    H10     19.165745   19.100908   24.637738 H          1 MOL1         0.0997
      16    H11     20.910164   18.848517   24.709348 H          1 MOL1         0.0997
      17    C5      20.293488   20.880285   25.164838 C.3        1 MOL1        -0.2320
      18    H12     19.509727   21.597740   24.888807 H          1 MOL1         0.1008
      19    H13     20.223681   20.705173   26.246276 H          1 MOL1         0.1008
      20    H14     21.267811   21.343314   24.961093 H          1 MOL1         0.1008
@<TRIPOS>BOND
    1     1     2    1
    2     1     3    1
    3     1     4    1
    4     1     5    1
    5     5     6    1
    6     5     7    1
    7     5     8    1
    8     8     9    1
    9     8    10    1
   10     8    11    1
   11    11    12    1
   12    11    13    1
   13    11    14    1
   14    14    15    1
   15    14    16    1
   16    14    17    1
   17    17    18    1
   18    17    19    1
   19    17    20    1
@<TRIPOS>SUBSTRUCTURE
       1 MOL1            1 RESIDUE      1      MOL     
@<SCITEGIC>MOL_PROPERTY
VConf Rank
SciTegic.value.IntegerValue
161

@<SCITEGIC>MOL_PROPERTY
Conf_Id
SciTegic.value.IntegerValue
72

@<SCITEGIC>MOL_PROPERTY
Delta U+W
SciTegic.value.DoubleValue
0.000

@<SCITEGIC>MOL_PROPERTY
U+W
SciTegic.value.DoubleValue
-11.778

@<SCITEGIC>MOL_PROPERTY
Grad RMS
SciTegic.value.DoubleValue
0.000000

@<SCITEGIC>MOL_PROPERTY
U
SciTegic.value.DoubleValue
45.772

@<SCITEGIC>MOL_PROPERTY
W
SciTegic.value.DoubleValue
-57.550

@<SCITEGIC>MOL_PROPERTY
W(PB)
SciTegic.value.DoubleValue
-59.511

@<SCITEGIC>MOL_PROPERTY
W(SA)
SciTegic.value.DoubleValue
1.961

@<SCITEGIC>MOL_PROPERTY
Valence
SciTegic.value.DoubleValue
1.299

@<SCITEGIC>MOL_PROPERTY
Coulomb
SciTegic.value.DoubleValue
44.177

@<SCITEGIC>MOL_PROPERTY
VdW
SciTegic.value.DoubleValue
0.297

@<SCITEGIC>MOL_PROPERTY
VdW6
SciTegic.value.DoubleValue
-3.490

@<SCITEGIC>MOL_PROPERTY
VdW12
SciTegic.value.DoubleValue
3.786

@<SCITEGIC>MOL_PROPERTY
Bond
SciTegic.value.DoubleValue
0.096

@<SCITEGIC>MOL_PROPERTY
Angle
SciTegic.value.DoubleValue
0.381

@<SCITEGIC>MOL_PROPERTY
Pdih
SciTegic.value.DoubleValue
0.822

@<SCITEGIC>MOL_PROPERTY
Idih
SciTegic.value.DoubleValue
0.000

@<SCITEGIC>MOL_PROPERTY
Tether
SciTegic.value.DoubleValue
0.000

@<TRIPOS>MOLECULE
guest-s11_confgen4.mol2 : confsearch ligand conformer 162
          20          19           1
SMALL
USER_CHARGES
 
@<TRIPOS>ATOM
       1    N1      20.741541   16.455289   23.575800 N.4        1 MOL1        -0.5919
       2    H1      21.747629   16.633885   23.496898 H          1 MOL1         0.3682
       3    H2      20.479093   16.634953   24.550072 H          1 MOL1         0.3682
       4    H3      20.603893   15.452545   23.411059 H          1 MOL1         0.3682
       5    C1      19.938310   17.300325   22.607652 C.3        1 MOL1         0.0252
       6    H4      18.883612   17.036877   22.724702 H          1 MOL1         0.0971
       7    H5      20.247319   17.036507   21.592557 H          1 MOL1         0.0971
       8    C2      20.121810   18.812623   22.827993 C.3        1 MOL1        -0.1369
       9    H6      19.825459   19.070475   23.853420 H          1 MOL1         0.0997
      10    H7      21.185381   19.062494   22.725781 H          1 MOL1         0.0997
      11    C3      19.283317   19.635018   21.821154 C.3        1 MOL1        -0.1329
      12    H8      18.233578   19.316154   21.885294 H          1 MOL1         0.0997
      13    H9      19.611459   19.411413   20.796502 H          1 MOL1         0.0997
      14    C4      19.349661   21.162506   22.064154 C.3        1 MOL1        -0.1305
      15    H10     18.649321   21.659438   21.378208 H          1 MOL1         0.0997
      16    H11     18.999517   21.393025   23.080095 H          1 MOL1         0.0997
      17    C5      20.760445   21.758009   21.852977 C.3        1 MOL1        -0.2320
      18    H12     21.145452   21.517365   20.853539 H          1 MOL1         0.1008
      19    H13     20.733917   22.851308   21.947554 H          1 MOL1         0.1008
      20    H14     21.473314   21.380687   22.596528 H          1 MOL1         0.1008
@<TRIPOS>BOND
    1     1     2    1
    2     1     3    1
    3     1     4    1
    4     1     5    1
    5     5     6    1
    6     5     7    1
    7     5     8    1
    8     8     9    1
    9     8    10    1
   10     8    11    1
   11    11    12    1
   12    11    13    1
   13    11    14    1
   14    14    15    1
   15    14    16    1
   16    14    17    1
   17    17    18    1
   18    17    19    1
   19    17    20    1
@<TRIPOS>SUBSTRUCTURE
       1 MOL1            1 RESIDUE      1      MOL     
@<SCITEGIC>MOL_PROPERTY
VConf Rank
SciTegic.value.IntegerValue
162

@<SCITEGIC>MOL_PROPERTY
Conf_Id
SciTegic.value.IntegerValue
42

@<SCITEGIC>MOL_PROPERTY
Delta U+W
SciTegic.value.DoubleValue
0.508

@<SCITEGIC>MOL_PROPERTY
U+W
SciTegic.value.DoubleValue
-11.270

@<SCITEGIC>MOL_PROPERTY
Grad RMS
SciTegic.value.DoubleValue
0.000000

@<SCITEGIC>MOL_PROPERTY
U
SciTegic.value.DoubleValue
46.486

@<SCITEGIC>MOL_PROPERTY
W
SciTegic.value.DoubleValue
-57.756

@<SCITEGIC>MOL_PROPERTY
W(PB)
SciTegic.value.DoubleValue
-59.705

@<SCITEGIC>MOL_PROPERTY
W(SA)
SciTegic.value.DoubleValue
1.949

@<SCITEGIC>MOL_PROPERTY
Valence
SciTegic.value.DoubleValue
1.806

@<SCITEGIC>MOL_PROPERTY
Coulomb
SciTegic.value.DoubleValue
44.248

@<SCITEGIC>MOL_PROPERTY
VdW
SciTegic.value.DoubleValue
0.433

@<SCITEGIC>MOL_PROPERTY
VdW6
SciTegic.value.DoubleValue
-4.089

@<SCITEGIC>MOL_PROPERTY
VdW12
SciTegic.value.DoubleValue
4.522

@<SCITEGIC>MOL_PROPERTY
Bond
SciTegic.value.DoubleValue
0.131

@<SCITEGIC>MOL_PROPERTY
Angle
SciTegic.value.DoubleValue
0.628

@<SCITEGIC>MOL_PROPERTY
Pdih
SciTegic.value.DoubleValue
1.047

@<SCITEGIC>MOL_PROPERTY
Idih
SciTegic.value.DoubleValue
0.000

@<SCITEGIC>MOL_PROPERTY
Tether
SciTegic.value.DoubleValue
0.000

@<TRIPOS>MOLECULE
guest-s11_confgen4.mol2 : confsearch ligand conformer 163
          20          19           1
SMALL
USER_CHARGES
 
@<TRIPOS>ATOM
       1    N1      20.914183   20.848465   24.771997 N.4        1 MOL1        -0.5919
       2    H1      21.284277   21.627492   24.218361 H          1 MOL1         0.3682
       3    H2      19.929627   21.057221   24.965399 H          1 MOL1         0.3682
       4    H3      21.403988   20.865020   25.672773 H          1 MOL1         0.3682
       5    C1      21.083171   19.519460   24.063639 C.3        1 MOL1         0.0252
       6    H4      20.696651   18.735333   24.720338 H          1 MOL1         0.0971
       7    H5      22.153239   19.348510   23.917953 H          1 MOL1         0.0971
       8    C2      20.359899   19.460855   22.706173 C.3        1 MOL1        -0.1369
       9    H6      19.290565   19.651276   22.862156 H          1 MOL1         0.0997
      10    H7      20.739788   20.259781   22.055624 H          1 MOL1         0.0997
      11    C3      20.561014   18.089664   22.018769 C.3        1 MOL1        -0.1329
      12    H8      20.139318   17.294280   22.648946 H          1 MOL1         0.0997
      13    H9      21.637576   17.883110   21.940710 H          1 MOL1         0.0997
      14    C4      19.940693   18.011545   20.602518 C.3        1 MOL1        -0.1305
      15    H10     20.377310   18.790448   19.961774 H          1 MOL1         0.0997
      16    H11     20.218125   17.049818   20.148590 H          1 MOL1         0.0997
      17    C5      18.400084   18.138185   20.598193 C.3        1 MOL1        -0.2320
      18    H12     18.075796   19.131803   20.931335 H          1 MOL1         0.1008
      19    H13     18.005014   17.985345   19.585517 H          1 MOL1         0.1008
      20    H14     17.940022   17.387803   21.254155 H          1 MOL1         0.1008
@<TRIPOS>BOND
    1     1     2    1
    2     1     3    1
    3     1     4    1
    4     1     5    1
    5     5     6    1
    6     5     7    1
    7     5     8    1
    8     8     9    1
    9     8    10    1
   10     8    11    1
   11    11    12    1
   12    11    13    1
   13    11    14    1
   14    14    15    1
   15    14    16    1
   16    14    17    1
   17    17    18    1
   18    17    19    1
   19    17    20    1
@<TRIPOS>SUBSTRUCTURE
       1 MOL1            1 RESIDUE      1      MOL     
@<SCITEGIC>MOL_PROPERTY
VConf Rank
SciTegic.value.IntegerValue
163

@<SCITEGIC>MOL_PROPERTY
Conf_Id
SciTegic.value.IntegerValue
41

@<SCITEGIC>MOL_PROPERTY
Delta U+W
SciTegic.value.DoubleValue
0.515

@<SCITEGIC>MOL_PROPERTY
U+W
SciTegic.value.DoubleValue
-11.263

@<SCITEGIC>MOL_PROPERTY
Grad RMS
SciTegic.value.DoubleValue
0.000000

@<SCITEGIC>MOL_PROPERTY
U
SciTegic.value.DoubleValue
46.486

@<SCITEGIC>MOL_PROPERTY
W
SciTegic.value.DoubleValue
-57.749

@<SCITEGIC>MOL_PROPERTY
W(PB)
SciTegic.value.DoubleValue
-59.685

@<SCITEGIC>MOL_PROPERTY
W(SA)
SciTegic.value.DoubleValue
1.936

@<SCITEGIC>MOL_PROPERTY
Valence
SciTegic.value.DoubleValue
1.806

@<SCITEGIC>MOL_PROPERTY
Coulomb
SciTegic.value.DoubleValue
44.248

@<SCITEGIC>MOL_PROPERTY
VdW
SciTegic.value.DoubleValue
0.433

@<SCITEGIC>MOL_PROPERTY
VdW6
SciTegic.value.DoubleValue
-4.089

@<SCITEGIC>MOL_PROPERTY
VdW12
SciTegic.value.DoubleValue
4.522

@<SCITEGIC>MOL_PROPERTY
Bond
SciTegic.value.DoubleValue
0.131

@<SCITEGIC>MOL_PROPERTY
Angle
SciTegic.value.DoubleValue
0.628

@<SCITEGIC>MOL_PROPERTY
Pdih
SciTegic.value.DoubleValue
1.047

@<SCITEGIC>MOL_PROPERTY
Idih
SciTegic.value.DoubleValue
0.000

@<SCITEGIC>MOL_PROPERTY
Tether
SciTegic.value.DoubleValue
0.000

@<TRIPOS>MOLECULE
guest-s11_confgen4.mol2 : confsearch ligand conformer 164
          20          19           1
SMALL
USER_CHARGES
 
@<TRIPOS>ATOM
       1    N1      21.468837   16.811396   21.727618 N.4        1 MOL1        -0.5919
       2    H1      22.327900   16.278708   21.555116 H          1 MOL1         0.3682
       3    H2      21.179895   16.607848   22.688878 H          1 MOL1         0.3682
       4    H3      20.749975   16.426035   21.107192 H          1 MOL1         0.3682
       5    C1      21.673047   18.297075   21.501300 C.3        1 MOL1         0.0252
       6    H4      22.020718   18.429930   20.473159 H          1 MOL1         0.0971
       7    H5      22.464535   18.637936   22.174205 H          1 MOL1         0.0971
       8    C2      20.403791   19.143090   21.722926 C.3        1 MOL1        -0.1369
       9    H6      20.627308   20.173915   21.421186 H          1 MOL1         0.0997
      10    H7      19.605515   18.787138   21.058288 H          1 MOL1         0.0997
      11    C3      19.919552   19.121538   23.194715 C.3        1 MOL1        -0.1329
      12    H8      20.715108   19.500309   23.851291 H          1 MOL1         0.0997
      13    H9      19.732436   18.084387   23.502794 H          1 MOL1         0.0997
      14    C4      18.624167   19.936296   23.429509 C.3        1 MOL1        -0.1305
      15    H10     17.821256   19.552299   22.784724 H          1 MOL1         0.0997
      16    H11     18.289856   19.775514   24.464074 H          1 MOL1         0.0997
      17    C5      18.799057   21.454173   23.194501 C.3        1 MOL1        -0.2320
      18    H12     19.011873   21.678396   22.142027 H          1 MOL1         0.1008
      19    H13     17.882070   21.992817   23.466430 H          1 MOL1         0.1008
      20    H14     19.617636   21.856948   23.804995 H          1 MOL1         0.1008
@<TRIPOS>BOND
    1     1     2    1
    2     1     3    1
    3     1     4    1
    4     1     5    1
    5     5     6    1
    6     5     7    1
    7     5     8    1
    8     8     9    1
    9     8    10    1
   10     8    11    1
   11    11    12    1
   12    11    13    1
   13    11    14    1
   14    14    15    1
   15    14    16    1
   16    14    17    1
   17    17    18    1
   18    17    19    1
   19    17    20    1
@<TRIPOS>SUBSTRUCTURE
       1 MOL1            1 RESIDUE      1      MOL     
@<SCITEGIC>MOL_PROPERTY
VConf Rank
SciTegic.value.IntegerValue
164

@<SCITEGIC>MOL_PROPERTY
Conf_Id
SciTegic.value.IntegerValue
33

@<SCITEGIC>MOL_PROPERTY
Delta U+W
SciTegic.value.DoubleValue
0.703

@<SCITEGIC>MOL_PROPERTY
U+W
SciTegic.value.DoubleValue
-11.075

@<SCITEGIC>MOL_PROPERTY
Grad RMS
SciTegic.value.DoubleValue
0.000000

@<SCITEGIC>MOL_PROPERTY
U
SciTegic.value.DoubleValue
47.080

@<SCITEGIC>MOL_PROPERTY
W
SciTegic.value.DoubleValue
-58.154

@<SCITEGIC>MOL_PROPERTY
W(PB)
SciTegic.value.DoubleValue
-60.053

@<SCITEGIC>MOL_PROPERTY
W(SA)
SciTegic.value.DoubleValue
1.899

@<SCITEGIC>MOL_PROPERTY
Valence
SciTegic.value.DoubleValue
1.943

@<SCITEGIC>MOL_PROPERTY
Coulomb
SciTegic.value.DoubleValue
44.572

@<SCITEGIC>MOL_PROPERTY
VdW
SciTegic.value.DoubleValue
0.565

@<SCITEGIC>MOL_PROPERTY
VdW6
SciTegic.value.DoubleValue
-4.575

@<SCITEGIC>MOL_PROPERTY
VdW12
SciTegic.value.DoubleValue
5.139

@<SCITEGIC>MOL_PROPERTY
Bond
SciTegic.value.DoubleValue
0.158

@<SCITEGIC>MOL_PROPERTY
Angle
SciTegic.value.DoubleValue
0.700

@<SCITEGIC>MOL_PROPERTY
Pdih
SciTegic.value.DoubleValue
1.085

@<SCITEGIC>MOL_PROPERTY
Idih
SciTegic.value.DoubleValue
0.000

@<SCITEGIC>MOL_PROPERTY
Tether
SciTegic.value.DoubleValue
0.000

@<TRIPOS>MOLECULE
guest-s11_confgen4.mol2 : confsearch ligand conformer 165
          20          19           1
SMALL
USER_CHARGES
 
@<TRIPOS>ATOM
       1    N1      18.137861   20.996924   22.131398 N.4        1 MOL1        -0.5919
       2    H1      17.816657   21.952213   21.942319 H          1 MOL1         0.3682
       3    H2      17.406457   20.364326   21.792194 H          1 MOL1         0.3682
       4    H3      18.180072   20.892692   23.149383 H          1 MOL1         0.3682
       5    C1      19.477036   20.713980   21.478165 C.3        1 MOL1         0.0252
       6    H4      20.202863   21.434655   21.864488 H          1 MOL1         0.0971
       7    H5      19.364227   20.887795   20.404543 H          1 MOL1         0.0971
       8    C2      19.995061   19.280934   21.710308 C.3        1 MOL1        -0.1369
       9    H6      19.256326   18.559326   21.337152 H          1 MOL1         0.0997
      10    H7      20.899713   19.145907   21.104519 H          1 MOL1         0.0997
      11    C3      20.314082   18.993676   23.199208 C.3        1 MOL1        -0.1329
      12    H8      19.414897   19.165588   23.805445 H          1 MOL1         0.0997
      13    H9      21.070289   19.705017   23.559226 H          1 MOL1         0.0997
      14    C4      20.801271   17.546952   23.457304 C.3        1 MOL1        -0.1305
      15    H10     20.893919   17.394948   24.541856 H          1 MOL1         0.0997
      16    H11     20.042129   16.831546   23.111237 H          1 MOL1         0.0997
      17    C5      22.159788   17.225873   22.793147 C.3        1 MOL1        -0.2320
      18    H12     22.929300   17.946644   23.098670 H          1 MOL1         0.1008
      19    H13     22.503106   16.225168   23.085841 H          1 MOL1         0.1008
      20    H14     22.088401   17.241572   21.698648 H          1 MOL1         0.1008
@<TRIPOS>BOND
    1     1     2    1
    2     1     3    1
    3     1     4    1
    4     1     5    1
    5     5     6    1
    6     5     7    1
    7     5     8    1
    8     8     9    1
    9     8    10    1
   10     8    11    1
   11    11    12    1
   12    11    13    1
   13    11    14    1
   14    14    15    1
   15    14    16    1
   16    14    17    1
   17    17    18    1
   18    17    19    1
   19    17    20    1
@<TRIPOS>SUBSTRUCTURE
       1 MOL1            1 RESIDUE      1      MOL     
@<SCITEGIC>MOL_PROPERTY
VConf Rank
SciTegic.value.IntegerValue
165

@<SCITEGIC>MOL_PROPERTY
Conf_Id
SciTegic.value.IntegerValue
24

@<SCITEGIC>MOL_PROPERTY
Delta U+W
SciTegic.value.DoubleValue
0.847

@<SCITEGIC>MOL_PROPERTY
U+W
SciTegic.value.DoubleValue
-10.931

@<SCITEGIC>MOL_PROPERTY
Grad RMS
SciTegic.value.DoubleValue
0.000000

@<SCITEGIC>MOL_PROPERTY
U
SciTegic.value.DoubleValue
47.080

@<SCITEGIC>MOL_PROPERTY
W
SciTegic.value.DoubleValue
-58.011

@<SCITEGIC>MOL_PROPERTY
W(PB)
SciTegic.value.DoubleValue
-59.914

@<SCITEGIC>MOL_PROPERTY
W(SA)
SciTegic.value.DoubleValue
1.903

@<SCITEGIC>MOL_PROPERTY
Valence
SciTegic.value.DoubleValue
1.943

@<SCITEGIC>MOL_PROPERTY
Coulomb
SciTegic.value.DoubleValue
44.572

@<SCITEGIC>MOL_PROPERTY
VdW
SciTegic.value.DoubleValue
0.565

@<SCITEGIC>MOL_PROPERTY
VdW6
SciTegic.value.DoubleValue
-4.575

@<SCITEGIC>MOL_PROPERTY
VdW12
SciTegic.value.DoubleValue
5.140

@<SCITEGIC>MOL_PROPERTY
Bond
SciTegic.value.DoubleValue
0.158

@<SCITEGIC>MOL_PROPERTY
Angle
SciTegic.value.DoubleValue
0.700

@<SCITEGIC>MOL_PROPERTY
Pdih
SciTegic.value.DoubleValue
1.085

@<SCITEGIC>MOL_PROPERTY
Idih
SciTegic.value.DoubleValue
0.000

@<SCITEGIC>MOL_PROPERTY
Tether
SciTegic.value.DoubleValue
0.000

@<TRIPOS>MOLECULE
guest-s11_confgen4.mol2 : confsearch ligand conformer 166
          20          19           1
SMALL
USER_CHARGES
 
@<TRIPOS>ATOM
       1    N1      20.794049   18.013631   24.873102 N.4        1 MOL1        -0.5919
       2    H1      21.308802   17.136480   25.003965 H          1 MOL1         0.3682
       3    H2      21.439519   18.774769   25.106036 H          1 MOL1         0.3682
       4    H3      20.046961   18.026935   25.574524 H          1 MOL1         0.3682
       5    C1      20.250448   18.142849   23.464511 C.3        1 MOL1         0.0252
       6    H4      19.596447   17.287485   23.274742 H          1 MOL1         0.0971
       7    H5      21.095050   18.090302   22.772506 H          1 MOL1         0.0971
       8    C2      19.471422   19.451527   23.234063 C.3        1 MOL1        -0.1369
       9    H6      18.650986   19.513715   23.961235 H          1 MOL1         0.0997
      10    H7      20.124414   20.310844   23.433135 H          1 MOL1         0.0997
      11    C3      18.881256   19.554205   21.805372 C.3        1 MOL1        -0.1329
      12    H8      18.331419   20.501119   21.714284 H          1 MOL1         0.0997
      13    H9      18.136093   18.758134   21.669376 H          1 MOL1         0.0997
      14    C4      19.924131   19.461658   20.662101 C.3        1 MOL1        -0.1305
      15    H10     20.411659   18.477279   20.671731 H          1 MOL1         0.0997
      16    H11     19.396141   19.526560   19.700385 H          1 MOL1         0.0997
      17    C5      20.996547   20.573373   20.717069 C.3        1 MOL1        -0.2320
      18    H12     21.651834   20.519216   19.838109 H          1 MOL1         0.1008
      19    H13     20.533449   21.568542   20.729435 H          1 MOL1         0.1008
      20    H14     21.630653   20.477669   21.607230 H          1 MOL1         0.1008
@<TRIPOS>BOND
    1     1     2    1
    2     1     3    1
    3     1     4    1
    4     1     5    1
    5     5     6    1
    6     5     7    1
    7     5     8    1
    8     8     9    1
    9     8    10    1
   10     8    11    1
   11    11    12    1
   12    11    13    1
   13    11    14    1
   14    14    15    1
   15    14    16    1
   16    14    17    1
   17    17    18    1
   18    17    19    1
   19    17    20    1
@<TRIPOS>SUBSTRUCTURE
       1 MOL1            1 RESIDUE      1      MOL     
@<SCITEGIC>MOL_PROPERTY
VConf Rank
SciTegic.value.IntegerValue
166

@<SCITEGIC>MOL_PROPERTY
Conf_Id
SciTegic.value.IntegerValue
64

@<SCITEGIC>MOL_PROPERTY
Delta U+W
SciTegic.value.DoubleValue
0.707

@<SCITEGIC>MOL_PROPERTY
U+W
SciTegic.value.DoubleValue
-11.070

@<SCITEGIC>MOL_PROPERTY
Grad RMS
SciTegic.value.DoubleValue
0.000000

@<SCITEGIC>MOL_PROPERTY
U
SciTegic.value.DoubleValue
47.077

@<SCITEGIC>MOL_PROPERTY
W
SciTegic.value.DoubleValue
-58.148

@<SCITEGIC>MOL_PROPERTY
W(PB)
SciTegic.value.DoubleValue
-60.054

@<SCITEGIC>MOL_PROPERTY
W(SA)
SciTegic.value.DoubleValue
1.906

@<SCITEGIC>MOL_PROPERTY
Valence
SciTegic.value.DoubleValue
2.039

@<SCITEGIC>MOL_PROPERTY
Coulomb
SciTegic.value.DoubleValue
44.655

@<SCITEGIC>MOL_PROPERTY
VdW
SciTegic.value.DoubleValue
0.383

@<SCITEGIC>MOL_PROPERTY
VdW6
SciTegic.value.DoubleValue
-4.912

@<SCITEGIC>MOL_PROPERTY
VdW12
SciTegic.value.DoubleValue
5.295

@<SCITEGIC>MOL_PROPERTY
Bond
SciTegic.value.DoubleValue
0.159

@<SCITEGIC>MOL_PROPERTY
Angle
SciTegic.value.DoubleValue
0.856

@<SCITEGIC>MOL_PROPERTY
Pdih
SciTegic.value.DoubleValue
1.024

@<SCITEGIC>MOL_PROPERTY
Idih
SciTegic.value.DoubleValue
0.000

@<SCITEGIC>MOL_PROPERTY
Tether
SciTegic.value.DoubleValue
0.000

@<TRIPOS>MOLECULE
guest-s11_confgen4.mol2 : confsearch ligand conformer 167
          20          19           1
SMALL
USER_CHARGES
 
@<TRIPOS>ATOM
       1    N1      20.858511   16.545946   23.369310 N.4        1 MOL1        -0.5919
       2    H1      20.214429   15.809581   23.063970 H          1 MOL1         0.3682
       3    H2      21.671547   16.512346   22.746359 H          1 MOL1         0.3682
       4    H3      21.188691   16.283079   24.303852 H          1 MOL1         0.3682
       5    C1      20.199730   17.910619   23.367956 C.3        1 MOL1         0.0252
       6    H4      20.931355   18.637029   23.731325 H          1 MOL1         0.0971
       7    H5      19.363498   17.883039   24.071756 H          1 MOL1         0.0971
       8    C2      19.692343   18.336362   21.977300 C.3        1 MOL1        -0.1369
       9    H6      20.529471   18.355492   21.267860 H          1 MOL1         0.0997
      10    H7      18.990141   17.579147   21.604071 H          1 MOL1         0.0997
      11    C3      18.980541   19.712243   21.994214 C.3        1 MOL1        -0.1329
      12    H8      18.074218   19.637218   22.611014 H          1 MOL1         0.0997
      13    H9      18.635419   19.947277   20.977892 H          1 MOL1         0.0997
      14    C4      19.845700   20.886288   22.519896 C.3        1 MOL1        -0.1305
      15    H10     19.238734   21.802403   22.505497 H          1 MOL1         0.0997
      16    H11     20.113229   20.719249   23.572180 H          1 MOL1         0.0997
      17    C5      21.127188   21.125254   21.689418 C.3        1 MOL1        -0.2320
      18    H12     20.888122   21.274658   20.628521 H          1 MOL1         0.1008
      19    H13     21.653667   22.020800   22.043990 H          1 MOL1         0.1008
      20    H14     21.822685   20.280602   21.769938 H          1 MOL1         0.1008
@<TRIPOS>BOND
    1     1     2    1
    2     1     3    1
    3     1     4    1
    4     1     5    1
    5     5     6    1
    6     5     7    1
    7     5     8    1
    8     8     9    1
    9     8    10    1
   10     8    11    1
   11    11    12    1
   12    11    13    1
   13    11    14    1
   14    14    15    1
   15    14    16    1
   16    14    17    1
   17    17    18    1
   18    17    19    1
   19    17    20    1
@<TRIPOS>SUBSTRUCTURE
       1 MOL1            1 RESIDUE      1      MOL     
@<SCITEGIC>MOL_PROPERTY
VConf Rank
SciTegic.value.IntegerValue
167

@<SCITEGIC>MOL_PROPERTY
Conf_Id
SciTegic.value.IntegerValue
22

@<SCITEGIC>MOL_PROPERTY
Delta U+W
SciTegic.value.DoubleValue
0.731

@<SCITEGIC>MOL_PROPERTY
U+W
SciTegic.value.DoubleValue
-11.047

@<SCITEGIC>MOL_PROPERTY
Grad RMS
SciTegic.value.DoubleValue
0.000000

@<SCITEGIC>MOL_PROPERTY
U
SciTegic.value.DoubleValue
47.078

@<SCITEGIC>MOL_PROPERTY
W
SciTegic.value.DoubleValue
-58.125

@<SCITEGIC>MOL_PROPERTY
W(PB)
SciTegic.value.DoubleValue
-60.031

@<SCITEGIC>MOL_PROPERTY
W(SA)
SciTegic.value.DoubleValue
1.906

@<SCITEGIC>MOL_PROPERTY
Valence
SciTegic.value.DoubleValue
2.039

@<SCITEGIC>MOL_PROPERTY
Coulomb
SciTegic.value.DoubleValue
44.655

@<SCITEGIC>MOL_PROPERTY
VdW
SciTegic.value.DoubleValue
0.383

@<SCITEGIC>MOL_PROPERTY
VdW6
SciTegic.value.DoubleValue
-4.913

@<SCITEGIC>MOL_PROPERTY
VdW12
SciTegic.value.DoubleValue
5.296

@<SCITEGIC>MOL_PROPERTY
Bond
SciTegic.value.DoubleValue
0.159

@<SCITEGIC>MOL_PROPERTY
Angle
SciTegic.value.DoubleValue
0.856

@<SCITEGIC>MOL_PROPERTY
Pdih
SciTegic.value.DoubleValue
1.024

@<SCITEGIC>MOL_PROPERTY
Idih
SciTegic.value.DoubleValue
0.000

@<SCITEGIC>MOL_PROPERTY
Tether
SciTegic.value.DoubleValue
0.000

@<TRIPOS>MOLECULE
guest-s11_confgen4.mol2 : confsearch ligand conformer 168
          20          19           1
SMALL
USER_CHARGES
 
@<TRIPOS>ATOM
       1    N1      19.258409   17.670600   20.406750 N.4        1 MOL1        -0.5919
       2    H1      19.666253   18.150306   19.598122 H          1 MOL1         0.3682
       3    H2      19.637562   16.718502   20.414744 H          1 MOL1         0.3682
       4    H3      18.252194   17.588109   20.227253 H          1 MOL1         0.3682
       5    C1      19.541445   18.403918   21.702415 C.3        1 MOL1         0.0252
       6    H4      19.057021   17.855187   22.514587 H          1 MOL1         0.0971
       7    H5      19.084266   19.393371   21.630044 H          1 MOL1         0.0971
       8    C2      21.044766   18.549424   21.998261 C.3        1 MOL1        -0.1369
       9    H6      21.511943   17.556832   21.948966 H          1 MOL1         0.0997
      10    H7      21.515542   19.152929   21.210901 H          1 MOL1         0.0997
      11    C3      21.355178   19.169241   23.384402 C.3        1 MOL1        -0.1329
      12    H8      22.444948   19.139204   23.522422 H          1 MOL1         0.0997
      13    H9      20.937750   18.540204   24.182785 H          1 MOL1         0.0997
      14    C4      20.890381   20.638132   23.561919 C.3        1 MOL1        -0.1305
      15    H10     21.555620   21.124655   24.289144 H          1 MOL1         0.0997
      16    H11     21.014085   21.193524   22.621719 H          1 MOL1         0.0997
      17    C5      19.439973   20.778418   24.081028 C.3        1 MOL1        -0.2320
      18    H12     18.703661   20.396826   23.366111 H          1 MOL1         0.1008
      19    H13     19.306772   20.239257   25.027900 H          1 MOL1         0.1008
      20    H14     19.200839   21.833976   24.264321 H          1 MOL1         0.1008
@<TRIPOS>BOND
    1     1     2    1
    2     1     3    1
    3     1     4    1
    4     1     5    1
    5     5     6    1
    6     5     7    1
    7     5     8    1
    8     8     9    1
    9     8    10    1
   10     8    11    1
   11    11    12    1
   12    11    13    1
   13    11    14    1
   14    14    15    1
   15    14    16    1
   16    14    17    1
   17    17    18    1
   18    17    19    1
   19    17    20    1
@<TRIPOS>SUBSTRUCTURE
       1 MOL1            1 RESIDUE      1      MOL     
@<SCITEGIC>MOL_PROPERTY
VConf Rank
SciTegic.value.IntegerValue
168

@<SCITEGIC>MOL_PROPERTY
Conf_Id
SciTegic.value.IntegerValue
61

@<SCITEGIC>MOL_PROPERTY
Delta U+W
SciTegic.value.DoubleValue
2.669

@<SCITEGIC>MOL_PROPERTY
U+W
SciTegic.value.DoubleValue
-9.108

@<SCITEGIC>MOL_PROPERTY
Grad RMS
SciTegic.value.DoubleValue
0.000000

@<SCITEGIC>MOL_PROPERTY
U
SciTegic.value.DoubleValue
48.916

@<SCITEGIC>MOL_PROPERTY
W
SciTegic.value.DoubleValue
-58.025

@<SCITEGIC>MOL_PROPERTY
W(PB)
SciTegic.value.DoubleValue
-59.935

@<SCITEGIC>MOL_PROPERTY
W(SA)
SciTegic.value.DoubleValue
1.911

@<SCITEGIC>MOL_PROPERTY
Valence
SciTegic.value.DoubleValue
3.785

@<SCITEGIC>MOL_PROPERTY
Coulomb
SciTegic.value.DoubleValue
44.716

@<SCITEGIC>MOL_PROPERTY
VdW
SciTegic.value.DoubleValue
0.415

@<SCITEGIC>MOL_PROPERTY
VdW6
SciTegic.value.DoubleValue
-4.836

@<SCITEGIC>MOL_PROPERTY
VdW12
SciTegic.value.DoubleValue
5.251

@<SCITEGIC>MOL_PROPERTY
Bond
SciTegic.value.DoubleValue
0.175

@<SCITEGIC>MOL_PROPERTY
Angle
SciTegic.value.DoubleValue
1.195

@<SCITEGIC>MOL_PROPERTY
Pdih
SciTegic.value.DoubleValue
2.415

@<SCITEGIC>MOL_PROPERTY
Idih
SciTegic.value.DoubleValue
0.000

@<SCITEGIC>MOL_PROPERTY
Tether
SciTegic.value.DoubleValue
0.000

@<TRIPOS>MOLECULE
guest-s11_confgen4.mol2 : confsearch ligand conformer 169
          20          19           1
SMALL
USER_CHARGES
 
@<TRIPOS>ATOM
       1    N1      19.055994   20.984463   21.833277 N.4        1 MOL1        -0.5919
       2    H1      18.973989   21.989380   22.020514 H          1 MOL1         0.3682
       3    H2      18.320950   20.747452   21.159603 H          1 MOL1         0.3682
       4    H3      18.834869   20.497227   22.705476 H          1 MOL1         0.3682
       5    C1      20.433771   20.620481   21.313835 C.3        1 MOL1         0.0252
       6    H4      21.179204   20.946988   22.043943 H          1 MOL1         0.0971
       7    H5      20.588264   21.192167   20.394668 H          1 MOL1         0.0971
       8    C2      20.622430   19.119757   21.007716 C.3        1 MOL1        -0.1369
       9    H6      19.733169   18.724556   20.498947 H          1 MOL1         0.0997
      10    H7      21.446552   19.027212   20.287904 H          1 MOL1         0.0997
      11    C3      20.970755   18.248733   22.242122 C.3        1 MOL1        -0.1329
      12    H8      21.894771   18.622331   22.704814 H          1 MOL1         0.0997
      13    H9      21.194973   17.232073   21.890541 H          1 MOL1         0.0997
      14    C4      19.853792   18.172792   23.309332 C.3        1 MOL1        -0.1305
      15    H10     19.718123   19.153524   23.782205 H          1 MOL1         0.0997
      16    H11     18.900199   17.903357   22.833929 H          1 MOL1         0.0997
      17    C5      20.185995   17.139743   24.407271 C.3        1 MOL1        -0.2320
      18    H12     19.388836   17.105063   25.161185 H          1 MOL1         0.1008
      19    H13     20.291829   16.132397   23.983862 H          1 MOL1         0.1008
      20    H14     21.122830   17.395335   24.919406 H          1 MOL1         0.1008
@<TRIPOS>BOND
    1     1     2    1
    2     1     3    1
    3     1     4    1
    4     1     5    1
    5     5     6    1
    6     5     7    1
    7     5     8    1
    8     8     9    1
    9     8    10    1
   10     8    11    1
   11    11    12    1
   12    11    13    1
   13    11    14    1
   14    14    15    1
   15    14    16    1
   16    14    17    1
   17    17    18    1
   18    17    19    1
   19    17    20    1
@<TRIPOS>SUBSTRUCTURE
       1 MOL1            1 RESIDUE      1      MOL     
@<SCITEGIC>MOL_PROPERTY
VConf Rank
SciTegic.value.IntegerValue
169

@<SCITEGIC>MOL_PROPERTY
Conf_Id
SciTegic.value.IntegerValue
69

@<SCITEGIC>MOL_PROPERTY
Delta U+W
SciTegic.value.DoubleValue
2.811

@<SCITEGIC>MOL_PROPERTY
U+W
SciTegic.value.DoubleValue
-8.967

@<SCITEGIC>MOL_PROPERTY
Grad RMS
SciTegic.value.DoubleValue
0.000000

@<SCITEGIC>MOL_PROPERTY
U
SciTegic.value.DoubleValue
49.216

@<SCITEGIC>MOL_PROPERTY
W
SciTegic.value.DoubleValue
-58.183

@<SCITEGIC>MOL_PROPERTY
W(PB)
SciTegic.value.DoubleValue
-60.064

@<SCITEGIC>MOL_PROPERTY
W(SA)
SciTegic.value.DoubleValue
1.881

@<SCITEGIC>MOL_PROPERTY
Valence
SciTegic.value.DoubleValue
2.929

@<SCITEGIC>MOL_PROPERTY
Coulomb
SciTegic.value.DoubleValue
46.006

@<SCITEGIC>MOL_PROPERTY
VdW
SciTegic.value.DoubleValue
0.281

@<SCITEGIC>MOL_PROPERTY
VdW6
SciTegic.value.DoubleValue
-4.909

@<SCITEGIC>MOL_PROPERTY
VdW12
SciTegic.value.DoubleValue
5.190

@<SCITEGIC>MOL_PROPERTY
Bond
SciTegic.value.DoubleValue
0.156

@<SCITEGIC>MOL_PROPERTY
Angle
SciTegic.value.DoubleValue
0.974

@<SCITEGIC>MOL_PROPERTY
Pdih
SciTegic.value.DoubleValue
1.799

@<SCITEGIC>MOL_PROPERTY
Idih
SciTegic.value.DoubleValue
0.000

@<SCITEGIC>MOL_PROPERTY
Tether
SciTegic.value.DoubleValue
0.000

@<TRIPOS>MOLECULE
guest-s11_confgen4.mol2 : confsearch ligand conformer 170
          20          19           1
SMALL
USER_CHARGES
 
@<TRIPOS>ATOM
       1    N1      19.667146   21.369258   22.925530 N.4        1 MOL1        -0.5919
       2    H1      20.541899   21.079707   22.480562 H          1 MOL1         0.3682
       3    H2      19.067706   21.757201   22.190360 H          1 MOL1         0.3682
       4    H3      19.893835   22.141099   23.561546 H          1 MOL1         0.3682
       5    C1      18.993747   20.221279   23.653024 C.3        1 MOL1         0.0252
       6    H4      18.082036   20.622052   24.104378 H          1 MOL1         0.0971
       7    H5      19.651018   19.886329   24.459959 H          1 MOL1         0.0971
       8    C2      18.621875   19.026394   22.750007 C.3        1 MOL1        -0.1369
       9    H6      17.816440   18.470149   23.247738 H          1 MOL1         0.0997
      10    H7      18.197611   19.387321   21.803674 H          1 MOL1         0.0997
      11    C3      19.784253   18.036926   22.478713 C.3        1 MOL1        -0.1329
      12    H8      19.378824   17.176044   21.929178 H          1 MOL1         0.0997
      13    H9      20.158313   17.641048   23.433085 H          1 MOL1         0.0997
      14    C4      20.960605   18.634977   21.671965 C.3        1 MOL1        -0.1305
      15    H10     20.580360   19.128103   20.766325 H          1 MOL1         0.0997
      16    H11     21.476050   19.398229   22.268299 H          1 MOL1         0.0997
      17    C5      21.983942   17.551028   21.270899 C.3        1 MOL1        -0.2320
      18    H12     21.519968   16.783774   20.637438 H          1 MOL1         0.1008
      19    H13     22.816415   17.992830   20.708004 H          1 MOL1         0.1008
      20    H14     22.402029   17.055636   22.156935 H          1 MOL1         0.1008
@<TRIPOS>BOND
    1     1     2    1
    2     1     3    1
    3     1     4    1
    4     1     5    1
    5     5     6    1
    6     5     7    1
    7     5     8    1
    8     8     9    1
    9     8    10    1
   10     8    11    1
   11    11    12    1
   12    11    13    1
   13    11    14    1
   14    14    15    1
   15    14    16    1
   16    14    17    1
   17    17    18    1
   18    17    19    1
   19    17    20    1
@<TRIPOS>SUBSTRUCTURE
       1 MOL1            1 RESIDUE      1      MOL     
@<SCITEGIC>MOL_PROPERTY
VConf Rank
SciTegic.value.IntegerValue
170

@<SCITEGIC>MOL_PROPERTY
Conf_Id
SciTegic.value.IntegerValue
26

@<SCITEGIC>MOL_PROPERTY
Delta U+W
SciTegic.value.DoubleValue
2.809

@<SCITEGIC>MOL_PROPERTY
U+W
SciTegic.value.DoubleValue
-8.969

@<SCITEGIC>MOL_PROPERTY
Grad RMS
SciTegic.value.DoubleValue
0.000000

@<SCITEGIC>MOL_PROPERTY
U
SciTegic.value.DoubleValue
49.216

@<SCITEGIC>MOL_PROPERTY
W
SciTegic.value.DoubleValue
-58.185

@<SCITEGIC>MOL_PROPERTY
W(PB)
SciTegic.value.DoubleValue
-60.088

@<SCITEGIC>MOL_PROPERTY
W(SA)
SciTegic.value.DoubleValue
1.903

@<SCITEGIC>MOL_PROPERTY
Valence
SciTegic.value.DoubleValue
2.929

@<SCITEGIC>MOL_PROPERTY
Coulomb
SciTegic.value.DoubleValue
46.006

@<SCITEGIC>MOL_PROPERTY
VdW
SciTegic.value.DoubleValue
0.281

@<SCITEGIC>MOL_PROPERTY
VdW6
SciTegic.value.DoubleValue
-4.909

@<SCITEGIC>MOL_PROPERTY
VdW12
SciTegic.value.DoubleValue
5.190

@<SCITEGIC>MOL_PROPERTY
Bond
SciTegic.value.DoubleValue
0.156

@<SCITEGIC>MOL_PROPERTY
Angle
SciTegic.value.DoubleValue
0.974

@<SCITEGIC>MOL_PROPERTY
Pdih
SciTegic.value.DoubleValue
1.799

@<SCITEGIC>MOL_PROPERTY
Idih
SciTegic.value.DoubleValue
0.000

@<SCITEGIC>MOL_PROPERTY
Tether
SciTegic.value.DoubleValue
0.000

@<TRIPOS>MOLECULE
guest-s11_confgen4.mol2 : confsearch ligand conformer 171
          20          19           1
SMALL
USER_CHARGES
 
@<TRIPOS>ATOM
       1    N1      22.437684   19.626566   21.893139 N.4        1 MOL1        -0.5919
       2    H1      22.251699   20.090638   22.786999 H          1 MOL1         0.3682
       3    H2      23.119490   18.883279   22.073980 H          1 MOL1         0.3682
       4    H3      22.898859   20.313724   21.287796 H          1 MOL1         0.3682
       5    C1      21.167178   19.085948   21.266606 C.3        1 MOL1         0.0252
       6    H4      21.434818   18.634736   20.307291 H          1 MOL1         0.0971
       7    H5      20.499658   19.929003   21.070118 H          1 MOL1         0.0971
       8    C2      20.442082   18.041178   22.138950 C.3        1 MOL1        -0.1369
       9    H6      19.582299   17.649427   21.580527 H          1 MOL1         0.0997
      10    H7      21.108862   17.184137   22.301805 H          1 MOL1         0.0997
      11    C3      19.966905   18.586302   23.511554 C.3        1 MOL1        -0.1329
      12    H8      20.842156   18.825305   24.130442 H          1 MOL1         0.0997
      13    H9      19.435890   17.785961   24.045104 H          1 MOL1         0.0997
      14    C4      19.051061   19.834585   23.433768 C.3        1 MOL1        -0.1305
      15    H10     18.794668   20.145630   24.456198 H          1 MOL1         0.0997
      16    H11     19.595536   20.678811   22.989554 H          1 MOL1         0.0997
      17    C5      17.744208   19.587958   22.646270 C.3        1 MOL1        -0.2320
      18    H12     17.188180   18.737024   23.060645 H          1 MOL1         0.1008
      19    H13     17.093084   20.470268   22.695780 H          1 MOL1         0.1008
      20    H14     17.944554   19.384914   21.586913 H          1 MOL1         0.1008
@<TRIPOS>BOND
    1     1     2    1
    2     1     3    1
    3     1     4    1
    4     1     5    1
    5     5     6    1
    6     5     7    1
    7     5     8    1
    8     8     9    1
    9     8    10    1
   10     8    11    1
   11    11    12    1
   12    11    13    1
   13    11    14    1
   14    14    15    1
   15    14    16    1
   16    14    17    1
   17    17    18    1
   18    17    19    1
   19    17    20    1
@<TRIPOS>SUBSTRUCTURE
       1 MOL1            1 RESIDUE      1      MOL     
@<SCITEGIC>MOL_PROPERTY
VConf Rank
SciTegic.value.IntegerValue
171

@<SCITEGIC>MOL_PROPERTY
Conf_Id
SciTegic.value.IntegerValue
2

@<SCITEGIC>MOL_PROPERTY
Delta U+W
SciTegic.value.DoubleValue
0.994

@<SCITEGIC>MOL_PROPERTY
U+W
SciTegic.value.DoubleValue
-10.784

@<SCITEGIC>MOL_PROPERTY
Grad RMS
SciTegic.value.DoubleValue
0.000000

@<SCITEGIC>MOL_PROPERTY
U
SciTegic.value.DoubleValue
47.562

@<SCITEGIC>MOL_PROPERTY
W
SciTegic.value.DoubleValue
-58.346

@<SCITEGIC>MOL_PROPERTY
W(PB)
SciTegic.value.DoubleValue
-60.221

@<SCITEGIC>MOL_PROPERTY
W(SA)
SciTegic.value.DoubleValue
1.875

@<SCITEGIC>MOL_PROPERTY
Valence
SciTegic.value.DoubleValue
2.149

@<SCITEGIC>MOL_PROPERTY
Coulomb
SciTegic.value.DoubleValue
45.034

@<SCITEGIC>MOL_PROPERTY
VdW
SciTegic.value.DoubleValue
0.378

@<SCITEGIC>MOL_PROPERTY
VdW6
SciTegic.value.DoubleValue
-5.599

@<SCITEGIC>MOL_PROPERTY
VdW12
SciTegic.value.DoubleValue
5.977

@<SCITEGIC>MOL_PROPERTY
Bond
SciTegic.value.DoubleValue
0.185

@<SCITEGIC>MOL_PROPERTY
Angle
SciTegic.value.DoubleValue
0.935

@<SCITEGIC>MOL_PROPERTY
Pdih
SciTegic.value.DoubleValue
1.028

@<SCITEGIC>MOL_PROPERTY
Idih
SciTegic.value.DoubleValue
0.000

@<SCITEGIC>MOL_PROPERTY
Tether
SciTegic.value.DoubleValue
0.000

@<TRIPOS>MOLECULE
guest-s11_confgen4.mol2 : confsearch ligand conformer 172
          20          19           1
SMALL
USER_CHARGES
 
@<TRIPOS>ATOM
       1    N1      19.767910   17.287714   24.034945 N.4        1 MOL1        -0.5919
       2    H1      18.827986   17.220206   24.437468 H          1 MOL1         0.3682
       3    H2      19.724902   16.881087   23.095933 H          1 MOL1         0.3682
       4    H3      20.377137   16.683768   24.596550 H          1 MOL1         0.3682
       5    C1      20.266522   18.719298   24.004125 C.3        1 MOL1         0.0252
       6    H4      21.280917   18.717256   23.596779 H          1 MOL1         0.0971
       7    H5      20.316385   19.076866   25.036194 H          1 MOL1         0.0971
       8    C2      19.375927   19.667949   23.176363 C.3        1 MOL1        -0.1369
       9    H6      18.369131   19.688682   23.614051 H          1 MOL1         0.0997
      10    H7      19.764308   20.690089   23.270826 H          1 MOL1         0.0997
      11    C3      19.272558   19.286781   21.676024 C.3        1 MOL1        -0.1329
      12    H8      18.649569   20.032957   21.163866 H          1 MOL1         0.0997
      13    H9      18.734358   18.334319   21.579252 H          1 MOL1         0.0997
      14    C4      20.631501   19.172687   20.938941 C.3        1 MOL1        -0.1305
      15    H10     21.233978   18.364253   21.374777 H          1 MOL1         0.0997
      16    H11     20.441696   18.879162   19.896988 H          1 MOL1         0.0997
      17    C5      21.444616   20.487085   20.945350 C.3        1 MOL1        -0.2320
      18    H12     21.757319   20.762285   21.960281 H          1 MOL1         0.1008
      19    H13     22.352576   20.380536   20.337779 H          1 MOL1         0.1008
      20    H14     20.857915   21.316295   20.529234 H          1 MOL1         0.1008
@<TRIPOS>BOND
    1     1     2    1
    2     1     3    1
    3     1     4    1
    4     1     5    1
    5     5     6    1
    6     5     7    1
    7     5     8    1
    8     8     9    1
    9     8    10    1
   10     8    11    1
   11    11    12    1
   12    11    13    1
   13    11    14    1
   14    14    15    1
   15    14    16    1
   16    14    17    1
   17    17    18    1
   18    17    19    1
   19    17    20    1
@<TRIPOS>SUBSTRUCTURE
       1 MOL1            1 RESIDUE      1      MOL     
@<SCITEGIC>MOL_PROPERTY
VConf Rank
SciTegic.value.IntegerValue
172

@<SCITEGIC>MOL_PROPERTY
Conf_Id
SciTegic.value.IntegerValue
1

@<SCITEGIC>MOL_PROPERTY
Delta U+W
SciTegic.value.DoubleValue
1.032

@<SCITEGIC>MOL_PROPERTY
U+W
SciTegic.value.DoubleValue
-10.746

@<SCITEGIC>MOL_PROPERTY
Grad RMS
SciTegic.value.DoubleValue
0.000000

@<SCITEGIC>MOL_PROPERTY
U
SciTegic.value.DoubleValue
47.562

@<SCITEGIC>MOL_PROPERTY
W
SciTegic.value.DoubleValue
-58.308

@<SCITEGIC>MOL_PROPERTY
W(PB)
SciTegic.value.DoubleValue
-60.184

@<SCITEGIC>MOL_PROPERTY
W(SA)
SciTegic.value.DoubleValue
1.877

@<SCITEGIC>MOL_PROPERTY
Valence
SciTegic.value.DoubleValue
2.149

@<SCITEGIC>MOL_PROPERTY
Coulomb
SciTegic.value.DoubleValue
45.035

@<SCITEGIC>MOL_PROPERTY
VdW
SciTegic.value.DoubleValue
0.378

@<SCITEGIC>MOL_PROPERTY
VdW6
SciTegic.value.DoubleValue
-5.599

@<SCITEGIC>MOL_PROPERTY
VdW12
SciTegic.value.DoubleValue
5.978

@<SCITEGIC>MOL_PROPERTY
Bond
SciTegic.value.DoubleValue
0.185

@<SCITEGIC>MOL_PROPERTY
Angle
SciTegic.value.DoubleValue
0.935

@<SCITEGIC>MOL_PROPERTY
Pdih
SciTegic.value.DoubleValue
1.028

@<SCITEGIC>MOL_PROPERTY
Idih
SciTegic.value.DoubleValue
0.000

@<SCITEGIC>MOL_PROPERTY
Tether
SciTegic.value.DoubleValue
0.000

@<TRIPOS>MOLECULE
guest-s11_confgen4.mol2 : confsearch ligand conformer 173
          20          19           1
SMALL
USER_CHARGES
 
@<TRIPOS>ATOM
       1    N1      21.181820   19.172095   20.351825 N.4        1 MOL1        -0.5919
       2    H1      22.140312   19.518524   20.245190 H          1 MOL1         0.3682
       3    H2      21.244079   18.212167   20.703032 H          1 MOL1         0.3682
       4    H3      20.777029   19.120994   19.411146 H          1 MOL1         0.3682
       5    C1      20.361015   20.056271   21.270666 C.3        1 MOL1         0.0252
       6    H4      19.349665   19.649056   21.313891 H          1 MOL1         0.0971
       7    H5      20.305214   21.046325   20.810011 H          1 MOL1         0.0971
       8    C2      20.946798   20.192223   22.692317 C.3        1 MOL1        -0.1369
       9    H6      21.964795   20.594345   22.603998 H          1 MOL1         0.0997
      10    H7      20.374331   20.944357   23.251062 H          1 MOL1         0.0997
      11    C3      20.998311   18.869223   23.503081 C.3        1 MOL1        -0.1329
      12    H8      21.774685   18.976688   24.273224 H          1 MOL1         0.0997
      13    H9      21.330534   18.038172   22.867702 H          1 MOL1         0.0997
      14    C4      19.679667   18.489675   24.224990 C.3        1 MOL1        -0.1305
      15    H10     19.866227   17.594317   24.834480 H          1 MOL1         0.0997
      16    H11     19.402098   19.284114   24.931816 H          1 MOL1         0.0997
      17    C5      18.490122   18.202046   23.282554 C.3        1 MOL1        -0.2320
      18    H12     18.769869   17.494783   22.491176 H          1 MOL1         0.1008
      19    H13     17.655441   17.763150   23.844342 H          1 MOL1         0.1008
      20    H14     18.117276   19.122237   22.817485 H          1 MOL1         0.1008
@<TRIPOS>BOND
    1     1     2    1
    2     1     3    1
    3     1     4    1
    4     1     5    1
    5     5     6    1
    6     5     7    1
    7     5     8    1
    8     8     9    1
    9     8    10    1
   10     8    11    1
   11    11    12    1
   12    11    13    1
   13    11    14    1
   14    14    15    1
   15    14    16    1
   16    14    17    1
   17    17    18    1
   18    17    19    1
   19    17    20    1
@<TRIPOS>SUBSTRUCTURE
       1 MOL1            1 RESIDUE      1      MOL     
@<SCITEGIC>MOL_PROPERTY
VConf Rank
SciTegic.value.IntegerValue
173

@<SCITEGIC>MOL_PROPERTY
Conf_Id
SciTegic.value.IntegerValue
80

@<SCITEGIC>MOL_PROPERTY
Delta U+W
SciTegic.value.DoubleValue
2.920

@<SCITEGIC>MOL_PROPERTY
U+W
SciTegic.value.DoubleValue
-8.857

@<SCITEGIC>MOL_PROPERTY
Grad RMS
SciTegic.value.DoubleValue
0.000000

@<SCITEGIC>MOL_PROPERTY
U
SciTegic.value.DoubleValue
49.434

@<SCITEGIC>MOL_PROPERTY
W
SciTegic.value.DoubleValue
-58.292

@<SCITEGIC>MOL_PROPERTY
W(PB)
SciTegic.value.DoubleValue
-60.170

@<SCITEGIC>MOL_PROPERTY
W(SA)
SciTegic.value.DoubleValue
1.879

@<SCITEGIC>MOL_PROPERTY
Valence
SciTegic.value.DoubleValue
3.798

@<SCITEGIC>MOL_PROPERTY
Coulomb
SciTegic.value.DoubleValue
45.253

@<SCITEGIC>MOL_PROPERTY
VdW
SciTegic.value.DoubleValue
0.384

@<SCITEGIC>MOL_PROPERTY
VdW6
SciTegic.value.DoubleValue
-5.595

@<SCITEGIC>MOL_PROPERTY
VdW12
SciTegic.value.DoubleValue
5.979

@<SCITEGIC>MOL_PROPERTY
Bond
SciTegic.value.DoubleValue
0.198

@<SCITEGIC>MOL_PROPERTY
Angle
SciTegic.value.DoubleValue
1.368

@<SCITEGIC>MOL_PROPERTY
Pdih
SciTegic.value.DoubleValue
2.231

@<SCITEGIC>MOL_PROPERTY
Idih
SciTegic.value.DoubleValue
0.000

@<SCITEGIC>MOL_PROPERTY
Tether
SciTegic.value.DoubleValue
0.000

@<TRIPOS>MOLECULE
guest-s11_confgen4.mol2 : confsearch ligand conformer 174
          20          19           1
SMALL
USER_CHARGES
 
@<TRIPOS>ATOM
       1    N1      19.359141   18.491515   24.546513 N.4        1 MOL1        -0.5919
       2    H1      18.481347   17.963164   24.566827 H          1 MOL1         0.3682
       3    H2      19.784153   18.399103   25.475045 H          1 MOL1         0.3682
       4    H3      19.115587   19.478876   24.426148 H          1 MOL1         0.3682
       5    C1      20.287145   18.002388   23.451378 C.3        1 MOL1         0.0252
       6    H4      20.533893   16.960147   23.671314 H          1 MOL1         0.0971
       7    H5      21.208617   18.584039   23.506940 H          1 MOL1         0.0971
       8    C2      19.680697   18.090404   22.034621 C.3        1 MOL1        -0.1369
       9    H6      20.355020   17.601121   21.319423 H          1 MOL1         0.0997
      10    H7      18.753630   17.501971   22.024039 H          1 MOL1         0.0997
      11    C3      19.365906   19.531687   21.550952 C.3        1 MOL1        -0.1329
      12    H8      18.916628   20.122258   22.359714 H          1 MOL1         0.0997
      13    H9      18.592017   19.464184   20.773801 H          1 MOL1         0.0997
      14    C4      20.568551   20.297165   20.941254 C.3        1 MOL1        -0.1305
      15    H10     20.954913   19.748032   20.071220 H          1 MOL1         0.0997
      16    H11     20.203949   21.259028   20.554172 H          1 MOL1         0.0997
      17    C5      21.723574   20.572427   21.929221 C.3        1 MOL1        -0.2320
      18    H12     22.270401   19.653330   22.170658 H          1 MOL1         0.1008
      19    H13     22.445715   21.271033   21.487192 H          1 MOL1         0.1008
      20    H14     21.353646   21.018374   22.861448 H          1 MOL1         0.1008
@<TRIPOS>BOND
    1     1     2    1
    2     1     3    1
    3     1     4    1
    4     1     5    1
    5     5     6    1
    6     5     7    1
    7     5     8    1
    8     8     9    1
    9     8    10    1
   10     8    11    1
   11    11    12    1
   12    11    13    1
   13    11    14    1
   14    14    15    1
   15    14    16    1
   16    14    17    1
   17    17    18    1
   18    17    19    1
   19    17    20    1
@<TRIPOS>SUBSTRUCTURE
       1 MOL1            1 RESIDUE      1      MOL     
@<SCITEGIC>MOL_PROPERTY
VConf Rank
SciTegic.value.IntegerValue
174

@<SCITEGIC>MOL_PROPERTY
Conf_Id
SciTegic.value.IntegerValue
65

@<SCITEGIC>MOL_PROPERTY
Delta U+W
SciTegic.value.DoubleValue
2.949

@<SCITEGIC>MOL_PROPERTY
U+W
SciTegic.value.DoubleValue
-8.829

@<SCITEGIC>MOL_PROPERTY
Grad RMS
SciTegic.value.DoubleValue
0.000000

@<SCITEGIC>MOL_PROPERTY
U
SciTegic.value.DoubleValue
49.435

@<SCITEGIC>MOL_PROPERTY
W
SciTegic.value.DoubleValue
-58.263

@<SCITEGIC>MOL_PROPERTY
W(PB)
SciTegic.value.DoubleValue
-60.125

@<SCITEGIC>MOL_PROPERTY
W(SA)
SciTegic.value.DoubleValue
1.862

@<SCITEGIC>MOL_PROPERTY
Valence
SciTegic.value.DoubleValue
3.797

@<SCITEGIC>MOL_PROPERTY
Coulomb
SciTegic.value.DoubleValue
45.253

@<SCITEGIC>MOL_PROPERTY
VdW
SciTegic.value.DoubleValue
0.384

@<SCITEGIC>MOL_PROPERTY
VdW6
SciTegic.value.DoubleValue
-5.596

@<SCITEGIC>MOL_PROPERTY
VdW12
SciTegic.value.DoubleValue
5.980

@<SCITEGIC>MOL_PROPERTY
Bond
SciTegic.value.DoubleValue
0.198

@<SCITEGIC>MOL_PROPERTY
Angle
SciTegic.value.DoubleValue
1.369

@<SCITEGIC>MOL_PROPERTY
Pdih
SciTegic.value.DoubleValue
2.230

@<SCITEGIC>MOL_PROPERTY
Idih
SciTegic.value.DoubleValue
0.000

@<SCITEGIC>MOL_PROPERTY
Tether
SciTegic.value.DoubleValue
0.000

@<TRIPOS>MOLECULE
guest-s11_confgen4.mol2 : confsearch ligand conformer 175
          20          19           1
SMALL
USER_CHARGES
 
@<TRIPOS>ATOM
       1    N1      21.534140   18.298944   21.453898 N.4        1 MOL1        -0.5919
       2    H1      21.792675   18.135986   20.474977 H          1 MOL1         0.3682
       3    H2      21.555848   19.311062   21.611602 H          1 MOL1         0.3682
       4    H3      22.273341   17.884503   22.030289 H          1 MOL1         0.3682
       5    C1      20.172595   17.717270   21.781627 C.3        1 MOL1         0.0252
       6    H4      20.230352   16.642117   21.591285 H          1 MOL1         0.0971
       7    H5      19.434885   18.143750   21.096717 H          1 MOL1         0.0971
       8    C2      19.727631   17.947045   23.240264 C.3        1 MOL1        -0.1369
       9    H6      18.987328   17.175003   23.488688 H          1 MOL1         0.0997
      10    H7      20.574462   17.777350   23.918415 H          1 MOL1         0.0997
      11    C3      19.082661   19.330118   23.524838 C.3        1 MOL1        -0.1329
      12    H8      18.766792   19.334570   24.577326 H          1 MOL1         0.0997
      13    H9      18.158162   19.439417   22.941040 H          1 MOL1         0.0997
      14    C4      20.004380   20.555033   23.295628 C.3        1 MOL1        -0.1305
      15    H10     19.769771   21.316107   24.053245 H          1 MOL1         0.0997
      16    H11     21.054693   20.283053   23.466309 H          1 MOL1         0.0997
      17    C5      19.819470   21.202463   21.902623 C.3        1 MOL1        -0.2320
      18    H12     19.966192   20.488308   21.085280 H          1 MOL1         0.1008
      19    H13     18.807386   21.615428   21.800319 H          1 MOL1         0.1008
      20    H14     20.528662   22.028694   21.762734 H          1 MOL1         0.1008
@<TRIPOS>BOND
    1     1     2    1
    2     1     3    1
    3     1     4    1
    4     1     5    1
    5     5     6    1
    6     5     7    1
    7     5     8    1
    8     8     9    1
    9     8    10    1
   10     8    11    1
   11    11    12    1
   12    11    13    1
   13    11    14    1
   14    14    15    1
   15    14    16    1
   16    14    17    1
   17    17    18    1
   18    17    19    1
   19    17    20    1
@<TRIPOS>SUBSTRUCTURE
       1 MOL1            1 RESIDUE      1      MOL     
@<SCITEGIC>MOL_PROPERTY
VConf Rank
SciTegic.value.IntegerValue
175

@<SCITEGIC>MOL_PROPERTY
Conf_Id
SciTegic.value.IntegerValue
77

@<SCITEGIC>MOL_PROPERTY
Delta U+W
SciTegic.value.DoubleValue
5.366

@<SCITEGIC>MOL_PROPERTY
U+W
SciTegic.value.DoubleValue
-6.412

@<SCITEGIC>MOL_PROPERTY
Grad RMS
SciTegic.value.DoubleValue
0.000000

@<SCITEGIC>MOL_PROPERTY
U
SciTegic.value.DoubleValue
51.542

@<SCITEGIC>MOL_PROPERTY
W
SciTegic.value.DoubleValue
-57.954

@<SCITEGIC>MOL_PROPERTY
W(PB)
SciTegic.value.DoubleValue
-59.811

@<SCITEGIC>MOL_PROPERTY
W(SA)
SciTegic.value.DoubleValue
1.857

@<SCITEGIC>MOL_PROPERTY
Valence
SciTegic.value.DoubleValue
5.347

@<SCITEGIC>MOL_PROPERTY
Coulomb
SciTegic.value.DoubleValue
45.870

@<SCITEGIC>MOL_PROPERTY
VdW
SciTegic.value.DoubleValue
0.325

@<SCITEGIC>MOL_PROPERTY
VdW6
SciTegic.value.DoubleValue
-6.161

@<SCITEGIC>MOL_PROPERTY
VdW12
SciTegic.value.DoubleValue
6.486

@<SCITEGIC>MOL_PROPERTY
Bond
SciTegic.value.DoubleValue
0.201

@<SCITEGIC>MOL_PROPERTY
Angle
SciTegic.value.DoubleValue
1.484

@<SCITEGIC>MOL_PROPERTY
Pdih
SciTegic.value.DoubleValue
3.662

@<SCITEGIC>MOL_PROPERTY
Idih
SciTegic.value.DoubleValue
0.000

@<SCITEGIC>MOL_PROPERTY
Tether
SciTegic.value.DoubleValue
0.000

@<TRIPOS>MOLECULE
guest-s11_confgen4.mol2 : confsearch ligand conformer 176
          20          19           1
SMALL
USER_CHARGES
 
@<TRIPOS>ATOM
       1    N1      21.913828   19.659856   23.215461 N.4        1 MOL1        -0.5919
       2    H1      22.363943   20.425176   22.703515 H          1 MOL1         0.3682
       3    H2      21.010325   20.007391   23.551061 H          1 MOL1         0.3682
       4    H3      22.494215   19.470388   24.039437 H          1 MOL1         0.3682
       5    C1      21.744867   18.426612   22.349365 C.3        1 MOL1         0.0252
       6    H4      21.322646   17.624201   22.960157 H          1 MOL1         0.0971
       7    H5      22.745092   18.120227   22.031248 H          1 MOL1         0.0971
       8    C2      20.867025   18.652624   21.101678 C.3        1 MOL1        -0.1369
       9    H6      21.117932   19.616978   20.640292 H          1 MOL1         0.0997
      10    H7      21.137185   17.888379   20.360898 H          1 MOL1         0.0997
      11    C3      19.336617   18.556960   21.343678 C.3        1 MOL1        -0.1329
      12    H8      19.072999   17.544021   21.678229 H          1 MOL1         0.0997
      13    H9      18.842051   18.682036   20.370392 H          1 MOL1         0.0997
      14    C4      18.749107   19.608875   22.318782 C.3        1 MOL1        -0.1305
      15    H10     19.343920   20.531791   22.292579 H          1 MOL1         0.0997
      16    H11     17.747839   19.892976   21.965216 H          1 MOL1         0.0997
      17    C5      18.607055   19.082681   23.766801 C.3        1 MOL1        -0.2320
      18    H12     18.240837   19.875245   24.432315 H          1 MOL1         0.1008
      19    H13     17.884607   18.257043   23.808204 H          1 MOL1         0.1008
      20    H14     19.553784   18.710410   24.172649 H          1 MOL1         0.1008
@<TRIPOS>BOND
    1     1     2    1
    2     1     3    1
    3     1     4    1
    4     1     5    1
    5     5     6    1
    6     5     7    1
    7     5     8    1
    8     8     9    1
    9     8    10    1
   10     8    11    1
   11    11    12    1
   12    11    13    1
   13    11    14    1
   14    14    15    1
   15    14    16    1
   16    14    17    1
   17    17    18    1
   18    17    19    1
   19    17    20    1
@<TRIPOS>SUBSTRUCTURE
       1 MOL1            1 RESIDUE      1      MOL     
@<SCITEGIC>MOL_PROPERTY
VConf Rank
SciTegic.value.IntegerValue
176

@<SCITEGIC>MOL_PROPERTY
Conf_Id
SciTegic.value.IntegerValue
67

@<SCITEGIC>MOL_PROPERTY
Delta U+W
SciTegic.value.DoubleValue
5.353

@<SCITEGIC>MOL_PROPERTY
U+W
SciTegic.value.DoubleValue
-6.425

@<SCITEGIC>MOL_PROPERTY
Grad RMS
SciTegic.value.DoubleValue
0.000000

@<SCITEGIC>MOL_PROPERTY
U
SciTegic.value.DoubleValue
51.541

@<SCITEGIC>MOL_PROPERTY
W
SciTegic.value.DoubleValue
-57.966

@<SCITEGIC>MOL_PROPERTY
W(PB)
SciTegic.value.DoubleValue
-59.821

@<SCITEGIC>MOL_PROPERTY
W(SA)
SciTegic.value.DoubleValue
1.855

@<SCITEGIC>MOL_PROPERTY
Valence
SciTegic.value.DoubleValue
5.347

@<SCITEGIC>MOL_PROPERTY
Coulomb
SciTegic.value.DoubleValue
45.870

@<SCITEGIC>MOL_PROPERTY
VdW
SciTegic.value.DoubleValue
0.325

@<SCITEGIC>MOL_PROPERTY
VdW6
SciTegic.value.DoubleValue
-6.161

@<SCITEGIC>MOL_PROPERTY
VdW12
SciTegic.value.DoubleValue
6.486

@<SCITEGIC>MOL_PROPERTY
Bond
SciTegic.value.DoubleValue
0.201

@<SCITEGIC>MOL_PROPERTY
Angle
SciTegic.value.DoubleValue
1.485

@<SCITEGIC>MOL_PROPERTY
Pdih
SciTegic.value.DoubleValue
3.662

@<SCITEGIC>MOL_PROPERTY
Idih
SciTegic.value.DoubleValue
0.000

@<SCITEGIC>MOL_PROPERTY
Tether
SciTegic.value.DoubleValue
0.000

@<TRIPOS>MOLECULE
guest-s11_confgen4.mol2 : confsearch ligand conformer 177
          20          19           1
SMALL
USER_CHARGES
 
@<TRIPOS>ATOM
       1    N1      20.648572   19.261052   25.638762 N.4        1 MOL1        -0.5919
       2    H1      20.002767   20.027696   25.852259 H          1 MOL1         0.3682
       3    H2      20.615836   18.614722   26.434240 H          1 MOL1         0.3682
       4    H3      21.592677   19.659348   25.618404 H          1 MOL1         0.3682
       5    C1      20.296937   18.569866   24.336801 C.3        1 MOL1         0.0252
       6    H4      19.294785   18.144985   24.440169 H          1 MOL1         0.0971
       7    H5      21.004040   17.749148   24.188672 H          1 MOL1         0.0971
       8    C2      20.336536   19.513244   23.121179 C.3        1 MOL1        -0.1369
       9    H6      19.636763   20.344358   23.281290 H          1 MOL1         0.0997
      10    H7      21.340132   19.949896   23.030646 H          1 MOL1         0.0997
      11    C3      19.972538   18.770565   21.816317 C.3        1 MOL1        -0.1329
      12    H8      18.970067   18.330541   21.912351 H          1 MOL1         0.0997
      13    H9      20.671443   17.936601   21.661953 H          1 MOL1         0.0997
      14    C4      20.008960   19.708203   20.588700 C.3        1 MOL1        -0.1305
      15    H10     19.309617   20.542863   20.738059 H          1 MOL1         0.0997
      16    H11     21.010765   20.148906   20.487628 H          1 MOL1         0.0997
      17    C5      19.644570   18.961940   19.287435 C.3        1 MOL1        -0.2320
      18    H12     18.633229   18.538710   19.344717 H          1 MOL1         0.1008
      19    H13     19.675827   19.643776   18.427687 H          1 MOL1         0.1008
      20    H14     20.347730   18.141768   19.092250 H          1 MOL1         0.1008
@<TRIPOS>BOND
    1     1     2    1
    2     1     3    1
    3     1     4    1
    4     1     5    1
    5     5     6    1
    6     5     7    1
    7     5     8    1
    8     8     9    1
    9     8    10    1
   10     8    11    1
   11    11    12    1
   12    11    13    1
   13    11    14    1
   14    14    15    1
   15    14    16    1
   16    14    17    1
   17    17    18    1
   18    17    19    1
   19    17    20    1
@<TRIPOS>SUBSTRUCTURE
       1 MOL1            1 RESIDUE      1      MOL     
@<SCITEGIC>MOL_PROPERTY
VConf Rank
SciTegic.value.IntegerValue
177

@<SCITEGIC>MOL_PROPERTY
Conf_Id
SciTegic.value.IntegerValue
72

@<SCITEGIC>MOL_PROPERTY
Delta U+W
SciTegic.value.DoubleValue
0.000

@<SCITEGIC>MOL_PROPERTY
U+W
SciTegic.value.DoubleValue
-11.778

@<SCITEGIC>MOL_PROPERTY
Grad RMS
SciTegic.value.DoubleValue
0.000000

@<SCITEGIC>MOL_PROPERTY
U
SciTegic.value.DoubleValue
45.772

@<SCITEGIC>MOL_PROPERTY
W
SciTegic.value.DoubleValue
-57.550

@<SCITEGIC>MOL_PROPERTY
W(PB)
SciTegic.value.DoubleValue
-59.511

@<SCITEGIC>MOL_PROPERTY
W(SA)
SciTegic.value.DoubleValue
1.961

@<SCITEGIC>MOL_PROPERTY
Valence
SciTegic.value.DoubleValue
1.299

@<SCITEGIC>MOL_PROPERTY
Coulomb
SciTegic.value.DoubleValue
44.177

@<SCITEGIC>MOL_PROPERTY
VdW
SciTegic.value.DoubleValue
0.297

@<SCITEGIC>MOL_PROPERTY
VdW6
SciTegic.value.DoubleValue
-3.490

@<SCITEGIC>MOL_PROPERTY
VdW12
SciTegic.value.DoubleValue
3.786

@<SCITEGIC>MOL_PROPERTY
Bond
SciTegic.value.DoubleValue
0.096

@<SCITEGIC>MOL_PROPERTY
Angle
SciTegic.value.DoubleValue
0.381

@<SCITEGIC>MOL_PROPERTY
Pdih
SciTegic.value.DoubleValue
0.822

@<SCITEGIC>MOL_PROPERTY
Idih
SciTegic.value.DoubleValue
0.000

@<SCITEGIC>MOL_PROPERTY
Tether
SciTegic.value.DoubleValue
0.000

@<TRIPOS>MOLECULE
guest-s11_confgen4.mol2 : confsearch ligand conformer 178
          20          19           1
SMALL
USER_CHARGES
 
@<TRIPOS>ATOM
       1    N1      21.437415   21.419635   20.992581 N.4        1 MOL1        -0.5919
       2    H1      20.654831   21.480606   20.333658 H          1 MOL1         0.3682
       3    H2      21.297450   22.152403   21.695307 H          1 MOL1         0.3682
       4    H3      22.285095   21.666282   20.470867 H          1 MOL1         0.3682
       5    C1      21.543263   20.044744   21.621106 C.3        1 MOL1         0.0252
       6    H4      22.412274   20.043161   22.284666 H          1 MOL1         0.0971
       7    H5      21.720873   19.320674   20.821305 H          1 MOL1         0.0971
       8    C2      20.286155   19.642968   22.413270 C.3        1 MOL1        -0.1369
       9    H6      20.102495   20.381265   23.205102 H          1 MOL1         0.0997
      10    H7      19.418258   19.665181   21.742206 H          1 MOL1         0.0997
      11    C3      20.439123   18.236139   23.038220 C.3        1 MOL1        -0.1329
      12    H8      21.354924   18.212010   23.645236 H          1 MOL1         0.0997
      13    H9      20.576755   17.490665   22.242662 H          1 MOL1         0.0997
      14    C4      19.244574   17.824088   23.932612 C.3        1 MOL1        -0.1305
      15    H10     19.480356   16.865816   24.416411 H          1 MOL1         0.0997
      16    H11     19.118210   18.554461   24.744070 H          1 MOL1         0.0997
      17    C5      17.916720   17.675954   23.155187 C.3        1 MOL1        -0.2320
      18    H12     18.024122   16.971551   22.320145 H          1 MOL1         0.1008
      19    H13     17.125910   17.295713   23.814725 H          1 MOL1         0.1008
      20    H14     17.575224   18.637581   22.752600 H          1 MOL1         0.1008
@<TRIPOS>BOND
    1     1     2    1
    2     1     3    1
    3     1     4    1
    4     1     5    1
    5     5     6    1
    6     5     7    1
    7     5     8    1
    8     8     9    1
    9     8    10    1
   10     8    11    1
   11    11    12    1
   12    11    13    1
   13    11    14    1
   14    14    15    1
   15    14    16    1
   16    14    17    1
   17    17    18    1
   18    17    19    1
   19    17    20    1
@<TRIPOS>SUBSTRUCTURE
       1 MOL1            1 RESIDUE      1      MOL     
@<SCITEGIC>MOL_PROPERTY
VConf Rank
SciTegic.value.IntegerValue
178

@<SCITEGIC>MOL_PROPERTY
Conf_Id
SciTegic.value.IntegerValue
42

@<SCITEGIC>MOL_PROPERTY
Delta U+W
SciTegic.value.DoubleValue
0.508

@<SCITEGIC>MOL_PROPERTY
U+W
SciTegic.value.DoubleValue
-11.270

@<SCITEGIC>MOL_PROPERTY
Grad RMS
SciTegic.value.DoubleValue
0.000000

@<SCITEGIC>MOL_PROPERTY
U
SciTegic.value.DoubleValue
46.486

@<SCITEGIC>MOL_PROPERTY
W
SciTegic.value.DoubleValue
-57.756

@<SCITEGIC>MOL_PROPERTY
W(PB)
SciTegic.value.DoubleValue
-59.705

@<SCITEGIC>MOL_PROPERTY
W(SA)
SciTegic.value.DoubleValue
1.949

@<SCITEGIC>MOL_PROPERTY
Valence
SciTegic.value.DoubleValue
1.806

@<SCITEGIC>MOL_PROPERTY
Coulomb
SciTegic.value.DoubleValue
44.248

@<SCITEGIC>MOL_PROPERTY
VdW
SciTegic.value.DoubleValue
0.433

@<SCITEGIC>MOL_PROPERTY
VdW6
SciTegic.value.DoubleValue
-4.089

@<SCITEGIC>MOL_PROPERTY
VdW12
SciTegic.value.DoubleValue
4.522

@<SCITEGIC>MOL_PROPERTY
Bond
SciTegic.value.DoubleValue
0.131

@<SCITEGIC>MOL_PROPERTY
Angle
SciTegic.value.DoubleValue
0.628

@<SCITEGIC>MOL_PROPERTY
Pdih
SciTegic.value.DoubleValue
1.047

@<SCITEGIC>MOL_PROPERTY
Idih
SciTegic.value.DoubleValue
0.000

@<SCITEGIC>MOL_PROPERTY
Tether
SciTegic.value.DoubleValue
0.000

@<TRIPOS>MOLECULE
guest-s11_confgen4.mol2 : confsearch ligand conformer 179
          20          19           1
SMALL
USER_CHARGES
 
@<TRIPOS>ATOM
       1    N1      22.019298   18.858013   20.132791 N.4        1 MOL1        -0.5919
       2    H1      21.762993   17.911105   19.836081 H          1 MOL1         0.3682
       3    H2      21.443460   19.509871   19.590735 H          1 MOL1         0.3682
       4    H3      22.991245   19.007630   19.842078 H          1 MOL1         0.3682
       5    C1      21.841977   19.051496   21.625341 C.3        1 MOL1         0.0252
       6    H4      22.160521   20.067406   21.874268 H          1 MOL1         0.0971
       7    H5      22.504713   18.348801   22.137683 H          1 MOL1         0.0971
       8    C2      20.392746   18.833522   22.095964 C.3        1 MOL1        -0.1369
       9    H6      19.734767   19.531201   21.562695 H          1 MOL1         0.0997
      10    H7      20.071669   17.817687   21.829880 H          1 MOL1         0.0997
      11    C3      20.258962   19.038682   23.623428 C.3        1 MOL1        -0.1329
      12    H8      20.536224   20.069577   23.884138 H          1 MOL1         0.0997
      13    H9      20.979473   18.386434   24.136438 H          1 MOL1         0.0997
      14    C4      18.842348   18.730612   24.166538 C.3        1 MOL1        -0.1305
      15    H10     18.570487   17.692617   23.928770 H          1 MOL1         0.0997
      16    H11     18.862629   18.798843   25.263293 H          1 MOL1         0.0997
      17    C5      17.755534   19.688943   23.628049 C.3        1 MOL1        -0.2320
      18    H12     17.612631   19.570481   22.546860 H          1 MOL1         0.1008
      19    H13     16.791140   19.486498   24.111692 H          1 MOL1         0.1008
      20    H14     18.017524   20.735995   23.828196 H          1 MOL1         0.1008
@<TRIPOS>BOND
    1     1     2    1
    2     1     3    1
    3     1     4    1
    4     1     5    1
    5     5     6    1
    6     5     7    1
    7     5     8    1
    8     8     9    1
    9     8    10    1
   10     8    11    1
   11    11    12    1
   12    11    13    1
   13    11    14    1
   14    14    15    1
   15    14    16    1
   16    14    17    1
   17    17    18    1
   18    17    19    1
   19    17    20    1
@<TRIPOS>SUBSTRUCTURE
       1 MOL1            1 RESIDUE      1      MOL     
@<SCITEGIC>MOL_PROPERTY
VConf Rank
SciTegic.value.IntegerValue
179

@<SCITEGIC>MOL_PROPERTY
Conf_Id
SciTegic.value.IntegerValue
41

@<SCITEGIC>MOL_PROPERTY
Delta U+W
SciTegic.value.DoubleValue
0.515

@<SCITEGIC>MOL_PROPERTY
U+W
SciTegic.value.DoubleValue
-11.263

@<SCITEGIC>MOL_PROPERTY
Grad RMS
SciTegic.value.DoubleValue
0.000000

@<SCITEGIC>MOL_PROPERTY
U
SciTegic.value.DoubleValue
46.486

@<SCITEGIC>MOL_PROPERTY
W
SciTegic.value.DoubleValue
-57.749

@<SCITEGIC>MOL_PROPERTY
W(PB)
SciTegic.value.DoubleValue
-59.685

@<SCITEGIC>MOL_PROPERTY
W(SA)
SciTegic.value.DoubleValue
1.936

@<SCITEGIC>MOL_PROPERTY
Valence
SciTegic.value.DoubleValue
1.806

@<SCITEGIC>MOL_PROPERTY
Coulomb
SciTegic.value.DoubleValue
44.248

@<SCITEGIC>MOL_PROPERTY
VdW
SciTegic.value.DoubleValue
0.433

@<SCITEGIC>MOL_PROPERTY
VdW6
SciTegic.value.DoubleValue
-4.089

@<SCITEGIC>MOL_PROPERTY
VdW12
SciTegic.value.DoubleValue
4.522

@<SCITEGIC>MOL_PROPERTY
Bond
SciTegic.value.DoubleValue
0.131

@<SCITEGIC>MOL_PROPERTY
Angle
SciTegic.value.DoubleValue
0.628

@<SCITEGIC>MOL_PROPERTY
Pdih
SciTegic.value.DoubleValue
1.047

@<SCITEGIC>MOL_PROPERTY
Idih
SciTegic.value.DoubleValue
0.000

@<SCITEGIC>MOL_PROPERTY
Tether
SciTegic.value.DoubleValue
0.000

@<TRIPOS>MOLECULE
guest-s11_confgen4.mol2 : confsearch ligand conformer 180
          20          19           1
SMALL
USER_CHARGES
 
@<TRIPOS>ATOM
       1    N1      19.120940   21.683955   22.210873 N.4        1 MOL1        -0.5919
       2    H1      18.695460   22.434999   21.657338 H          1 MOL1         0.3682
       3    H2      18.355306   21.180278   22.668096 H          1 MOL1         0.3682
       4    H3      19.671333   22.133511   22.949223 H          1 MOL1         0.3682
       5    C1      19.969817   20.764877   21.353629 C.3        1 MOL1         0.0252
       6    H4      20.733103   21.378379   20.867205 H          1 MOL1         0.0971
       7    H5      19.330394   20.338485   20.575960 H          1 MOL1         0.0971
       8    C2      20.654252   19.630826   22.141885 C.3        1 MOL1        -0.1369
       9    H6      21.329972   19.103036   21.457452 H          1 MOL1         0.0997
      10    H7      21.281938   20.061633   22.933153 H          1 MOL1         0.0997
      11    C3      19.640895   18.630159   22.752533 C.3        1 MOL1        -0.1329
      12    H8      19.031921   18.186268   21.952796 H          1 MOL1         0.0997
      13    H9      18.944382   19.169476   23.407981 H          1 MOL1         0.0997
      14    C4      20.308347   17.504105   23.579268 C.3        1 MOL1        -0.1305
      15    H10     20.907889   17.942758   24.389205 H          1 MOL1         0.0997
      16    H11     19.521422   16.911578   24.066712 H          1 MOL1         0.0997
      17    C5      21.190314   16.557572   22.733117 C.3        1 MOL1        -0.2320
      18    H12     22.065130   17.077982   22.324290 H          1 MOL1         0.1008
      19    H13     21.559756   15.726059   23.347158 H          1 MOL1         0.1008
      20    H14     20.621960   16.129813   21.897055 H          1 MOL1         0.1008
@<TRIPOS>BOND
    1     1     2    1
    2     1     3    1
    3     1     4    1
    4     1     5    1
    5     5     6    1
    6     5     7    1
    7     5     8    1
    8     8     9    1
    9     8    10    1
   10     8    11    1
   11    11    12    1
   12    11    13    1
   13    11    14    1
   14    14    15    1
   15    14    16    1
   16    14    17    1
   17    17    18    1
   18    17    19    1
   19    17    20    1
@<TRIPOS>SUBSTRUCTURE
       1 MOL1            1 RESIDUE      1      MOL     
@<SCITEGIC>MOL_PROPERTY
VConf Rank
SciTegic.value.IntegerValue
180

@<SCITEGIC>MOL_PROPERTY
Conf_Id
SciTegic.value.IntegerValue
33

@<SCITEGIC>MOL_PROPERTY
Delta U+W
SciTegic.value.DoubleValue
0.703

@<SCITEGIC>MOL_PROPERTY
U+W
SciTegic.value.DoubleValue
-11.075

@<SCITEGIC>MOL_PROPERTY
Grad RMS
SciTegic.value.DoubleValue
0.000000

@<SCITEGIC>MOL_PROPERTY
U
SciTegic.value.DoubleValue
47.080

@<SCITEGIC>MOL_PROPERTY
W
SciTegic.value.DoubleValue
-58.154

@<SCITEGIC>MOL_PROPERTY
W(PB)
SciTegic.value.DoubleValue
-60.053

@<SCITEGIC>MOL_PROPERTY
W(SA)
SciTegic.value.DoubleValue
1.899

@<SCITEGIC>MOL_PROPERTY
Valence
SciTegic.value.DoubleValue
1.943

@<SCITEGIC>MOL_PROPERTY
Coulomb
SciTegic.value.DoubleValue
44.572

@<SCITEGIC>MOL_PROPERTY
VdW
SciTegic.value.DoubleValue
0.565

@<SCITEGIC>MOL_PROPERTY
VdW6
SciTegic.value.DoubleValue
-4.575

@<SCITEGIC>MOL_PROPERTY
VdW12
SciTegic.value.DoubleValue
5.139

@<SCITEGIC>MOL_PROPERTY
Bond
SciTegic.value.DoubleValue
0.158

@<SCITEGIC>MOL_PROPERTY
Angle
SciTegic.value.DoubleValue
0.700

@<SCITEGIC>MOL_PROPERTY
Pdih
SciTegic.value.DoubleValue
1.085

@<SCITEGIC>MOL_PROPERTY
Idih
SciTegic.value.DoubleValue
0.000

@<SCITEGIC>MOL_PROPERTY
Tether
SciTegic.value.DoubleValue
0.000

@<TRIPOS>MOLECULE
guest-s11_confgen4.mol2 : confsearch ligand conformer 181
          20          19           1
SMALL
USER_CHARGES
 
@<TRIPOS>ATOM
       1    N1      22.428133   19.393793   20.920560 N.4        1 MOL1        -0.5919
       2    H1      23.328829   19.047559   20.573618 H          1 MOL1         0.3682
       3    H2      22.035517   19.990447   20.185679 H          1 MOL1         0.3682
       4    H3      22.629831   19.996099   21.723980 H          1 MOL1         0.3682
       5    C1      21.491934   18.258073   21.286392 C.3        1 MOL1         0.0252
       6    H4      21.978400   17.650243   22.054074 H          1 MOL1         0.0971
       7    H5      21.360376   17.638273   20.395247 H          1 MOL1         0.0971
       8    C2      20.111948   18.723829   21.790944 C.3        1 MOL1        -0.1369
       9    H6      19.633369   19.348266   21.024960 H          1 MOL1         0.0997
      10    H7      19.478992   17.836072   21.912852 H          1 MOL1         0.0997
      11    C3      20.194359   19.496393   23.131642 C.3        1 MOL1        -0.1329
      12    H8      20.857919   20.363233   23.013802 H          1 MOL1         0.0997
      13    H9      20.653537   18.857625   23.898845 H          1 MOL1         0.0997
      14    C4      18.821469   20.004114   23.635992 C.3        1 MOL1        -0.1305
      15    H10     18.982902   20.633307   24.522556 H          1 MOL1         0.0997
      16    H11     18.364018   20.654742   22.877515 H          1 MOL1         0.0997
      17    C5      17.841330   18.867304   24.005795 C.3        1 MOL1        -0.2320
      18    H12     18.287416   18.184038   24.740070 H          1 MOL1         0.1008
      19    H13     16.924023   19.279430   24.445851 H          1 MOL1         0.1008
      20    H14     17.549150   18.282894   23.124678 H          1 MOL1         0.1008
@<TRIPOS>BOND
    1     1     2    1
    2     1     3    1
    3     1     4    1
    4     1     5    1
    5     5     6    1
    6     5     7    1
    7     5     8    1
    8     8     9    1
    9     8    10    1
   10     8    11    1
   11    11    12    1
   12    11    13    1
   13    11    14    1
   14    14    15    1
   15    14    16    1
   16    14    17    1
   17    17    18    1
   18    17    19    1
   19    17    20    1
@<TRIPOS>SUBSTRUCTURE
       1 MOL1            1 RESIDUE      1      MOL     
@<SCITEGIC>MOL_PROPERTY
VConf Rank
SciTegic.value.IntegerValue
181

@<SCITEGIC>MOL_PROPERTY
Conf_Id
SciTegic.value.IntegerValue
24

@<SCITEGIC>MOL_PROPERTY
Delta U+W
SciTegic.value.DoubleValue
0.847

@<SCITEGIC>MOL_PROPERTY
U+W
SciTegic.value.DoubleValue
-10.931

@<SCITEGIC>MOL_PROPERTY
Grad RMS
SciTegic.value.DoubleValue
0.000000

@<SCITEGIC>MOL_PROPERTY
U
SciTegic.value.DoubleValue
47.080

@<SCITEGIC>MOL_PROPERTY
W
SciTegic.value.DoubleValue
-58.011

@<SCITEGIC>MOL_PROPERTY
W(PB)
SciTegic.value.DoubleValue
-59.914

@<SCITEGIC>MOL_PROPERTY
W(SA)
SciTegic.value.DoubleValue
1.903

@<SCITEGIC>MOL_PROPERTY
Valence
SciTegic.value.DoubleValue
1.943

@<SCITEGIC>MOL_PROPERTY
Coulomb
SciTegic.value.DoubleValue
44.572

@<SCITEGIC>MOL_PROPERTY
VdW
SciTegic.value.DoubleValue
0.565

@<SCITEGIC>MOL_PROPERTY
VdW6
SciTegic.value.DoubleValue
-4.575

@<SCITEGIC>MOL_PROPERTY
VdW12
SciTegic.value.DoubleValue
5.140

@<SCITEGIC>MOL_PROPERTY
Bond
SciTegic.value.DoubleValue
0.158

@<SCITEGIC>MOL_PROPERTY
Angle
SciTegic.value.DoubleValue
0.700

@<SCITEGIC>MOL_PROPERTY
Pdih
SciTegic.value.DoubleValue
1.085

@<SCITEGIC>MOL_PROPERTY
Idih
SciTegic.value.DoubleValue
0.000

@<SCITEGIC>MOL_PROPERTY
Tether
SciTegic.value.DoubleValue
0.000

@<TRIPOS>MOLECULE
guest-s11_confgen4.mol2 : confsearch ligand conformer 182
          20          19           1
SMALL
USER_CHARGES
 
@<TRIPOS>ATOM
       1    N1      18.348002   18.875481   24.549917 N.4        1 MOL1        -0.5919
       2    H1      18.559445   18.838199   25.552609 H          1 MOL1         0.3682
       3    H2      17.927655   19.792348   24.368575 H          1 MOL1         0.3682
       4    H3      17.624191   18.171902   24.372762 H          1 MOL1         0.3682
       5    C1      19.583797   18.641588   23.704676 C.3        1 MOL1         0.0252
       6    H4      19.994344   17.663476   23.969490 H          1 MOL1         0.0971
       7    H5      20.319761   19.406079   23.967153 H          1 MOL1         0.0971
       8    C2      19.300503   18.691839   22.191453 C.3        1 MOL1        -0.1369
       9    H6      18.530253   17.948862   21.945568 H          1 MOL1         0.0997
      10    H7      18.879818   19.670116   21.926021 H          1 MOL1         0.0997
      11    C3      20.560253   18.406980   21.335953 C.3        1 MOL1        -0.1329
      12    H8      20.285336   18.446540   20.272883 H          1 MOL1         0.0997
      13    H9      20.893123   17.376691   21.523556 H          1 MOL1         0.0997
      14    C4      21.749480   19.368957   21.588076 C.3        1 MOL1        -0.1305
      15    H10     22.108350   19.266312   22.621252 H          1 MOL1         0.0997
      16    H11     22.588280   19.064473   20.946526 H          1 MOL1         0.0997
      17    C5      21.413952   20.849807   21.299090 C.3        1 MOL1        -0.2320
      18    H12     22.310695   21.474394   21.402280 H          1 MOL1         0.1008
      19    H13     21.032805   20.976269   20.277469 H          1 MOL1         0.1008
      20    H14     20.661238   21.235981   21.997606 H          1 MOL1         0.1008
@<TRIPOS>BOND
    1     1     2    1
    2     1     3    1
    3     1     4    1
    4     1     5    1
    5     5     6    1
    6     5     7    1
    7     5     8    1
    8     8     9    1
    9     8    10    1
   10     8    11    1
   11    11    12    1
   12    11    13    1
   13    11    14    1
   14    14    15    1
   15    14    16    1
   16    14    17    1
   17    17    18    1
   18    17    19    1
   19    17    20    1
@<TRIPOS>SUBSTRUCTURE
       1 MOL1            1 RESIDUE      1      MOL     
@<SCITEGIC>MOL_PROPERTY
VConf Rank
SciTegic.value.IntegerValue
182

@<SCITEGIC>MOL_PROPERTY
Conf_Id
SciTegic.value.IntegerValue
64

@<SCITEGIC>MOL_PROPERTY
Delta U+W
SciTegic.value.DoubleValue
0.707

@<SCITEGIC>MOL_PROPERTY
U+W
SciTegic.value.DoubleValue
-11.070

@<SCITEGIC>MOL_PROPERTY
Grad RMS
SciTegic.value.DoubleValue
0.000000

@<SCITEGIC>MOL_PROPERTY
U
SciTegic.value.DoubleValue
47.077

@<SCITEGIC>MOL_PROPERTY
W
SciTegic.value.DoubleValue
-58.148

@<SCITEGIC>MOL_PROPERTY
W(PB)
SciTegic.value.DoubleValue
-60.054

@<SCITEGIC>MOL_PROPERTY
W(SA)
SciTegic.value.DoubleValue
1.906

@<SCITEGIC>MOL_PROPERTY
Valence
SciTegic.value.DoubleValue
2.039

@<SCITEGIC>MOL_PROPERTY
Coulomb
SciTegic.value.DoubleValue
44.655

@<SCITEGIC>MOL_PROPERTY
VdW
SciTegic.value.DoubleValue
0.383

@<SCITEGIC>MOL_PROPERTY
VdW6
SciTegic.value.DoubleValue
-4.912

@<SCITEGIC>MOL_PROPERTY
VdW12
SciTegic.value.DoubleValue
5.295

@<SCITEGIC>MOL_PROPERTY
Bond
SciTegic.value.DoubleValue
0.159

@<SCITEGIC>MOL_PROPERTY
Angle
SciTegic.value.DoubleValue
0.856

@<SCITEGIC>MOL_PROPERTY
Pdih
SciTegic.value.DoubleValue
1.024

@<SCITEGIC>MOL_PROPERTY
Idih
SciTegic.value.DoubleValue
0.000

@<SCITEGIC>MOL_PROPERTY
Tether
SciTegic.value.DoubleValue
0.000

@<TRIPOS>MOLECULE
guest-s11_confgen4.mol2 : confsearch ligand conformer 183
          20          19           1
SMALL
USER_CHARGES
 
@<TRIPOS>ATOM
       1    N1      21.903465   17.279146   21.282956 N.4        1 MOL1        -0.5919
       2    H1      21.436415   16.479860   20.843281 H          1 MOL1         0.3682
       3    H2      22.119167   17.949090   20.538060 H          1 MOL1         0.3682
       4    H3      22.800096   16.937273   21.644432 H          1 MOL1         0.3682
       5    C1      21.055707   17.899661   22.375016 C.3        1 MOL1         0.0252
       6    H4      21.625906   18.720991   22.816915 H          1 MOL1         0.0971
       7    H5      20.889859   17.142179   23.145791 H          1 MOL1         0.0971
       8    C2      19.700472   18.424464   21.864585 C.3        1 MOL1        -0.1369
       9    H6      19.865704   19.178323   21.084296 H          1 MOL1         0.0997
      10    H7      19.153899   17.601102   21.385948 H          1 MOL1         0.0997
      11    C3      18.822264   19.016016   22.995431 C.3        1 MOL1        -0.1329
      12    H8      18.563250   18.215029   23.701706 H          1 MOL1         0.0997
      13    H9      17.870953   19.358610   22.565432 H          1 MOL1         0.0997
      14    C4      19.472584   20.183110   23.781688 C.3        1 MOL1        -0.1305
      15    H10     18.774231   20.509703   24.564965 H          1 MOL1         0.0997
      16    H11     20.371350   19.832561   24.307151 H          1 MOL1         0.0997
      17    C5      19.829433   21.397850   22.895080 C.3        1 MOL1        -0.2320
      18    H12     18.950857   21.755006   22.342342 H          1 MOL1         0.1008
      19    H13     20.198588   22.228098   23.510968 H          1 MOL1         0.1008
      20    H14     20.615015   21.150559   22.170275 H          1 MOL1         0.1008
@<TRIPOS>BOND
    1     1     2    1
    2     1     3    1
    3     1     4    1
    4     1     5    1
    5     5     6    1
    6     5     7    1
    7     5     8    1
    8     8     9    1
    9     8    10    1
   10     8    11    1
   11    11    12    1
   12    11    13    1
   13    11    14    1
   14    14    15    1
   15    14    16    1
   16    14    17    1
   17    17    18    1
   18    17    19    1
   19    17    20    1
@<TRIPOS>SUBSTRUCTURE
       1 MOL1            1 RESIDUE      1      MOL     
@<SCITEGIC>MOL_PROPERTY
VConf Rank
SciTegic.value.IntegerValue
183

@<SCITEGIC>MOL_PROPERTY
Conf_Id
SciTegic.value.IntegerValue
22

@<SCITEGIC>MOL_PROPERTY
Delta U+W
SciTegic.value.DoubleValue
0.731

@<SCITEGIC>MOL_PROPERTY
U+W
SciTegic.value.DoubleValue
-11.047

@<SCITEGIC>MOL_PROPERTY
Grad RMS
SciTegic.value.DoubleValue
0.000000

@<SCITEGIC>MOL_PROPERTY
U
SciTegic.value.DoubleValue
47.078

@<SCITEGIC>MOL_PROPERTY
W
SciTegic.value.DoubleValue
-58.125

@<SCITEGIC>MOL_PROPERTY
W(PB)
SciTegic.value.DoubleValue
-60.031

@<SCITEGIC>MOL_PROPERTY
W(SA)
SciTegic.value.DoubleValue
1.906

@<SCITEGIC>MOL_PROPERTY
Valence
SciTegic.value.DoubleValue
2.039

@<SCITEGIC>MOL_PROPERTY
Coulomb
SciTegic.value.DoubleValue
44.655

@<SCITEGIC>MOL_PROPERTY
VdW
SciTegic.value.DoubleValue
0.383

@<SCITEGIC>MOL_PROPERTY
VdW6
SciTegic.value.DoubleValue
-4.913

@<SCITEGIC>MOL_PROPERTY
VdW12
SciTegic.value.DoubleValue
5.296

@<SCITEGIC>MOL_PROPERTY
Bond
SciTegic.value.DoubleValue
0.159

@<SCITEGIC>MOL_PROPERTY
Angle
SciTegic.value.DoubleValue
0.856

@<SCITEGIC>MOL_PROPERTY
Pdih
SciTegic.value.DoubleValue
1.024

@<SCITEGIC>MOL_PROPERTY
Idih
SciTegic.value.DoubleValue
0.000

@<SCITEGIC>MOL_PROPERTY
Tether
SciTegic.value.DoubleValue
0.000

@<TRIPOS>MOLECULE
guest-s11_confgen4.mol2 : confsearch ligand conformer 184
          20          19           1
SMALL
USER_CHARGES
 
@<TRIPOS>ATOM
       1    N1      19.758289   21.355410   24.159570 N.4        1 MOL1        -0.5919
       2    H1      18.995099   21.019517   24.755432 H          1 MOL1         0.3682
       3    H2      20.557371   21.545609   24.772435 H          1 MOL1         0.3682
       4    H3      19.459177   22.256892   23.773105 H          1 MOL1         0.3682
       5    C1      20.104734   20.361822   23.068989 C.3        1 MOL1         0.0252
       6    H4      20.902213   20.793896   22.458469 H          1 MOL1         0.0971
       7    H5      19.218420   20.233733   22.443442 H          1 MOL1         0.0971
       8    C2      20.552673   18.995154   23.616933 C.3        1 MOL1        -0.1369
       9    H6      21.367026   19.153040   24.336533 H          1 MOL1         0.0997
      10    H7      19.727161   18.538092   24.178545 H          1 MOL1         0.0997
      11    C3      21.046463   18.011893   22.525474 C.3        1 MOL1        -0.1329
      12    H8      21.422764   17.114498   23.035994 H          1 MOL1         0.0997
      13    H9      21.910805   18.436290   21.996183 H          1 MOL1         0.0997
      14    C4      19.962819   17.565878   21.509612 C.3        1 MOL1        -0.1305
      15    H10     20.226227   16.563972   21.142319 H          1 MOL1         0.0997
      16    H11     18.991272   17.457029   22.011597 H          1 MOL1         0.0997
      17    C5      19.831319   18.499102   20.282976 C.3        1 MOL1        -0.2320
      18    H12     19.480981   19.499561   20.557239 H          1 MOL1         0.1008
      19    H13     20.792792   18.605112   19.764002 H          1 MOL1         0.1008
      20    H14     19.111002   18.086112   19.564946 H          1 MOL1         0.1008
@<TRIPOS>BOND
    1     1     2    1
    2     1     3    1
    3     1     4    1
    4     1     5    1
    5     5     6    1
    6     5     7    1
    7     5     8    1
    8     8     9    1
    9     8    10    1
   10     8    11    1
   11    11    12    1
   12    11    13    1
   13    11    14    1
   14    14    15    1
   15    14    16    1
   16    14    17    1
   17    17    18    1
   18    17    19    1
   19    17    20    1
@<TRIPOS>SUBSTRUCTURE
       1 MOL1            1 RESIDUE      1      MOL     
@<SCITEGIC>MOL_PROPERTY
VConf Rank
SciTegic.value.IntegerValue
184

@<SCITEGIC>MOL_PROPERTY
Conf_Id
SciTegic.value.IntegerValue
61

@<SCITEGIC>MOL_PROPERTY
Delta U+W
SciTegic.value.DoubleValue
2.669

@<SCITEGIC>MOL_PROPERTY
U+W
SciTegic.value.DoubleValue
-9.108

@<SCITEGIC>MOL_PROPERTY
Grad RMS
SciTegic.value.DoubleValue
0.000000

@<SCITEGIC>MOL_PROPERTY
U
SciTegic.value.DoubleValue
48.916

@<SCITEGIC>MOL_PROPERTY
W
SciTegic.value.DoubleValue
-58.025

@<SCITEGIC>MOL_PROPERTY
W(PB)
SciTegic.value.DoubleValue
-59.935

@<SCITEGIC>MOL_PROPERTY
W(SA)
SciTegic.value.DoubleValue
1.911

@<SCITEGIC>MOL_PROPERTY
Valence
SciTegic.value.DoubleValue
3.785

@<SCITEGIC>MOL_PROPERTY
Coulomb
SciTegic.value.DoubleValue
44.716

@<SCITEGIC>MOL_PROPERTY
VdW
SciTegic.value.DoubleValue
0.415

@<SCITEGIC>MOL_PROPERTY
VdW6
SciTegic.value.DoubleValue
-4.836

@<SCITEGIC>MOL_PROPERTY
VdW12
SciTegic.value.DoubleValue
5.251

@<SCITEGIC>MOL_PROPERTY
Bond
SciTegic.value.DoubleValue
0.175

@<SCITEGIC>MOL_PROPERTY
Angle
SciTegic.value.DoubleValue
1.195

@<SCITEGIC>MOL_PROPERTY
Pdih
SciTegic.value.DoubleValue
2.415

@<SCITEGIC>MOL_PROPERTY
Idih
SciTegic.value.DoubleValue
0.000

@<SCITEGIC>MOL_PROPERTY
Tether
SciTegic.value.DoubleValue
0.000

@<TRIPOS>MOLECULE
guest-s11_confgen4.mol2 : confsearch ligand conformer 185
          20          19           1
SMALL
USER_CHARGES
 
@<TRIPOS>ATOM
       1    N1      22.299706   19.720475   22.786170 N.4        1 MOL1        -0.5919
       2    H1      23.097802   20.226673   22.388114 H          1 MOL1         0.3682
       3    H2      22.622853   19.299972   23.663129 H          1 MOL1         0.3682
       4    H3      22.080937   18.952977   22.145771 H          1 MOL1         0.3682
       5    C1      21.108375   20.633285   23.005440 C.3        1 MOL1         0.0252
       6    H4      20.844129   21.097084   22.051290 H          1 MOL1         0.0971
       7    H5      21.434804   21.424027   23.686418 H          1 MOL1         0.0971
       8    C2      19.872242   19.932695   23.607622 C.3        1 MOL1        -0.1369
       9    H6      20.180597   19.247627   24.408505 H          1 MOL1         0.0997
      10    H7      19.255363   20.701911   24.090983 H          1 MOL1         0.0997
      11    C3      18.984000   19.192101   22.574996 C.3        1 MOL1        -0.1329
      12    H8      18.636635   19.904088   21.813499 H          1 MOL1         0.0997
      13    H9      18.082880   18.835495   23.092968 H          1 MOL1         0.0997
      14    C4      19.670245   17.990993   21.883101 C.3        1 MOL1        -0.1305
      15    H10     20.484380   18.343663   21.237609 H          1 MOL1         0.0997
      16    H11     20.114730   17.328207   22.638805 H          1 MOL1         0.0997
      17    C5      18.673815   17.186025   21.021607 C.3        1 MOL1        -0.2320
      18    H12     19.178092   16.343777   20.530307 H          1 MOL1         0.1008
      19    H13     17.859645   16.778455   21.634988 H          1 MOL1         0.1008
      20    H14     18.230064   17.815499   20.239228 H          1 MOL1         0.1008
@<TRIPOS>BOND
    1     1     2    1
    2     1     3    1
    3     1     4    1
    4     1     5    1
    5     5     6    1
    6     5     7    1
    7     5     8    1
    8     8     9    1
    9     8    10    1
   10     8    11    1
   11    11    12    1
   12    11    13    1
   13    11    14    1
   14    14    15    1
   15    14    16    1
   16    14    17    1
   17    17    18    1
   18    17    19    1
   19    17    20    1
@<TRIPOS>SUBSTRUCTURE
       1 MOL1            1 RESIDUE      1      MOL     
@<SCITEGIC>MOL_PROPERTY
VConf Rank
SciTegic.value.IntegerValue
185

@<SCITEGIC>MOL_PROPERTY
Conf_Id
SciTegic.value.IntegerValue
69

@<SCITEGIC>MOL_PROPERTY
Delta U+W
SciTegic.value.DoubleValue
2.811

@<SCITEGIC>MOL_PROPERTY
U+W
SciTegic.value.DoubleValue
-8.967

@<SCITEGIC>MOL_PROPERTY
Grad RMS
SciTegic.value.DoubleValue
0.000000

@<SCITEGIC>MOL_PROPERTY
U
SciTegic.value.DoubleValue
49.216

@<SCITEGIC>MOL_PROPERTY
W
SciTegic.value.DoubleValue
-58.183

@<SCITEGIC>MOL_PROPERTY
W(PB)
SciTegic.value.DoubleValue
-60.064

@<SCITEGIC>MOL_PROPERTY
W(SA)
SciTegic.value.DoubleValue
1.881

@<SCITEGIC>MOL_PROPERTY
Valence
SciTegic.value.DoubleValue
2.929

@<SCITEGIC>MOL_PROPERTY
Coulomb
SciTegic.value.DoubleValue
46.006

@<SCITEGIC>MOL_PROPERTY
VdW
SciTegic.value.DoubleValue
0.281

@<SCITEGIC>MOL_PROPERTY
VdW6
SciTegic.value.DoubleValue
-4.909

@<SCITEGIC>MOL_PROPERTY
VdW12
SciTegic.value.DoubleValue
5.190

@<SCITEGIC>MOL_PROPERTY
Bond
SciTegic.value.DoubleValue
0.156

@<SCITEGIC>MOL_PROPERTY
Angle
SciTegic.value.DoubleValue
0.974

@<SCITEGIC>MOL_PROPERTY
Pdih
SciTegic.value.DoubleValue
1.799

@<SCITEGIC>MOL_PROPERTY
Idih
SciTegic.value.DoubleValue
0.000

@<SCITEGIC>MOL_PROPERTY
Tether
SciTegic.value.DoubleValue
0.000

@<TRIPOS>MOLECULE
guest-s11_confgen4.mol2 : confsearch ligand conformer 186
          20          19           1
SMALL
USER_CHARGES
 
@<TRIPOS>ATOM
       1    N1      17.992984   20.003587   22.887339 N.4        1 MOL1        -0.5919
       2    H1      18.541269   19.516592   23.600955 H          1 MOL1         0.3682
       3    H2      18.084116   21.008073   23.069017 H          1 MOL1         0.3682
       4    H3      17.009207   19.761453   23.046074 H          1 MOL1         0.3682
       5    C1      18.440814   19.642864   21.483810 C.3        1 MOL1         0.0252
       6    H4      17.797397   20.194682   20.793108 H          1 MOL1         0.0971
       7    H5      18.267908   18.574865   21.326256 H          1 MOL1         0.0971
       8    C2      19.914020   19.985859   21.178037 C.3        1 MOL1        -0.1369
       9    H6      20.016430   20.075197   20.088357 H          1 MOL1         0.0997
      10    H7      20.162741   20.974804   21.585394 H          1 MOL1         0.0997
      11    C3      20.936970   18.927649   21.665415 C.3        1 MOL1        -0.1329
      12    H8      21.930160   19.216323   21.294310 H          1 MOL1         0.0997
      13    H9      20.708531   17.957422   21.202877 H          1 MOL1         0.0997
      14    C4      21.006707   18.762871   23.201740 C.3        1 MOL1        -0.1305
      15    H10     21.127833   19.745925   23.678056 H          1 MOL1         0.0997
      16    H11     20.070407   18.330757   23.576537 H          1 MOL1         0.0997
      17    C5      22.174422   17.845039   23.622507 C.3        1 MOL1        -0.2320
      18    H12     23.139045   18.259692   23.301901 H          1 MOL1         0.1008
      19    H13     22.204110   17.730766   24.713888 H          1 MOL1         0.1008
      20    H14     22.069000   16.844965   23.182042 H          1 MOL1         0.1008
@<TRIPOS>BOND
    1     1     2    1
    2     1     3    1
    3     1     4    1
    4     1     5    1
    5     5     6    1
    6     5     7    1
    7     5     8    1
    8     8     9    1
    9     8    10    1
   10     8    11    1
   11    11    12    1
   12    11    13    1
   13    11    14    1
   14    14    15    1
   15    14    16    1
   16    14    17    1
   17    17    18    1
   18    17    19    1
   19    17    20    1
@<TRIPOS>SUBSTRUCTURE
       1 MOL1            1 RESIDUE      1      MOL     
@<SCITEGIC>MOL_PROPERTY
VConf Rank
SciTegic.value.IntegerValue
186

@<SCITEGIC>MOL_PROPERTY
Conf_Id
SciTegic.value.IntegerValue
26

@<SCITEGIC>MOL_PROPERTY
Delta U+W
SciTegic.value.DoubleValue
2.809

@<SCITEGIC>MOL_PROPERTY
U+W
SciTegic.value.DoubleValue
-8.969

@<SCITEGIC>MOL_PROPERTY
Grad RMS
SciTegic.value.DoubleValue
0.000000

@<SCITEGIC>MOL_PROPERTY
U
SciTegic.value.DoubleValue
49.216

@<SCITEGIC>MOL_PROPERTY
W
SciTegic.value.DoubleValue
-58.185

@<SCITEGIC>MOL_PROPERTY
W(PB)
SciTegic.value.DoubleValue
-60.088

@<SCITEGIC>MOL_PROPERTY
W(SA)
SciTegic.value.DoubleValue
1.903

@<SCITEGIC>MOL_PROPERTY
Valence
SciTegic.value.DoubleValue
2.929

@<SCITEGIC>MOL_PROPERTY
Coulomb
SciTegic.value.DoubleValue
46.006

@<SCITEGIC>MOL_PROPERTY
VdW
SciTegic.value.DoubleValue
0.281

@<SCITEGIC>MOL_PROPERTY
VdW6
SciTegic.value.DoubleValue
-4.909

@<SCITEGIC>MOL_PROPERTY
VdW12
SciTegic.value.DoubleValue
5.190

@<SCITEGIC>MOL_PROPERTY
Bond
SciTegic.value.DoubleValue
0.156

@<SCITEGIC>MOL_PROPERTY
Angle
SciTegic.value.DoubleValue
0.974

@<SCITEGIC>MOL_PROPERTY
Pdih
SciTegic.value.DoubleValue
1.799

@<SCITEGIC>MOL_PROPERTY
Idih
SciTegic.value.DoubleValue
0.000

@<SCITEGIC>MOL_PROPERTY
Tether
SciTegic.value.DoubleValue
0.000

@<TRIPOS>MOLECULE
guest-s11_confgen4.mol2 : confsearch ligand conformer 187
          20          19           1
SMALL
USER_CHARGES
 
@<TRIPOS>ATOM
       1    N1      20.070841   18.756848   20.080251 N.4        1 MOL1        -0.5919
       2    H1      19.239870   19.309744   20.309886 H          1 MOL1         0.3682
       3    H2      20.668782   19.340869   19.487441 H          1 MOL1         0.3682
       4    H3      19.757801   17.968725   19.503903 H          1 MOL1         0.3682
       5    C1      20.796526   18.290338   21.327147 C.3        1 MOL1         0.0252
       6    H4      21.649157   17.684220   21.009105 H          1 MOL1         0.0971
       7    H5      20.117925   17.648899   21.895468 H          1 MOL1         0.0971
       8    C2      21.293890   19.443264   22.222514 C.3        1 MOL1        -0.1369
       9    H6      21.870120   19.020889   23.055635 H          1 MOL1         0.0997
      10    H7      22.000416   20.061339   21.652917 H          1 MOL1         0.0997
      11    C3      20.159813   20.344609   22.777891 C.3        1 MOL1        -0.1329
      12    H8      19.691453   20.891786   21.948769 H          1 MOL1         0.0997
      13    H9      20.603967   21.112179   23.426553 H          1 MOL1         0.0997
      14    C4      19.058882   19.591858   23.568047 C.3        1 MOL1        -0.1305
      15    H10     18.301605   20.318851   23.893415 H          1 MOL1         0.0997
      16    H11     18.534977   18.884734   22.910784 H          1 MOL1         0.0997
      17    C5      19.597359   18.845018   24.809464 C.3        1 MOL1        -0.2320
      18    H12     20.140620   19.527442   25.475894 H          1 MOL1         0.1008
      19    H13     18.770728   18.404567   25.381800 H          1 MOL1         0.1008
      20    H14     20.274140   18.029218   24.526555 H          1 MOL1         0.1008
@<TRIPOS>BOND
    1     1     2    1
    2     1     3    1
    3     1     4    1
    4     1     5    1
    5     5     6    1
    6     5     7    1
    7     5     8    1
    8     8     9    1
    9     8    10    1
   10     8    11    1
   11    11    12    1
   12    11    13    1
   13    11    14    1
   14    14    15    1
   15    14    16    1
   16    14    17    1
   17    17    18    1
   18    17    19    1
   19    17    20    1
@<TRIPOS>SUBSTRUCTURE
       1 MOL1            1 RESIDUE      1      MOL     
@<SCITEGIC>MOL_PROPERTY
VConf Rank
SciTegic.value.IntegerValue
187

@<SCITEGIC>MOL_PROPERTY
Conf_Id
SciTegic.value.IntegerValue
2

@<SCITEGIC>MOL_PROPERTY
Delta U+W
SciTegic.value.DoubleValue
0.994

@<SCITEGIC>MOL_PROPERTY
U+W
SciTegic.value.DoubleValue
-10.784

@<SCITEGIC>MOL_PROPERTY
Grad RMS
SciTegic.value.DoubleValue
0.000000

@<SCITEGIC>MOL_PROPERTY
U
SciTegic.value.DoubleValue
47.562

@<SCITEGIC>MOL_PROPERTY
W
SciTegic.value.DoubleValue
-58.346

@<SCITEGIC>MOL_PROPERTY
W(PB)
SciTegic.value.DoubleValue
-60.221

@<SCITEGIC>MOL_PROPERTY
W(SA)
SciTegic.value.DoubleValue
1.875

@<SCITEGIC>MOL_PROPERTY
Valence
SciTegic.value.DoubleValue
2.149

@<SCITEGIC>MOL_PROPERTY
Coulomb
SciTegic.value.DoubleValue
45.034

@<SCITEGIC>MOL_PROPERTY
VdW
SciTegic.value.DoubleValue
0.378

@<SCITEGIC>MOL_PROPERTY
VdW6
SciTegic.value.DoubleValue
-5.599

@<SCITEGIC>MOL_PROPERTY
VdW12
SciTegic.value.DoubleValue
5.977

@<SCITEGIC>MOL_PROPERTY
Bond
SciTegic.value.DoubleValue
0.185

@<SCITEGIC>MOL_PROPERTY
Angle
SciTegic.value.DoubleValue
0.935

@<SCITEGIC>MOL_PROPERTY
Pdih
SciTegic.value.DoubleValue
1.028

@<SCITEGIC>MOL_PROPERTY
Idih
SciTegic.value.DoubleValue
0.000

@<SCITEGIC>MOL_PROPERTY
Tether
SciTegic.value.DoubleValue
0.000

@<TRIPOS>MOLECULE
guest-s11_confgen4.mol2 : confsearch ligand conformer 188
          20          19           1
SMALL
USER_CHARGES
 
@<TRIPOS>ATOM
       1    N1      21.497958   20.738900   21.299746 N.4        1 MOL1        -0.5919
       2    H1      21.212126   21.718418   21.394001 H          1 MOL1         0.3682
       3    H2      22.008272   20.489231   22.151911 H          1 MOL1         0.3682
       4    H3      22.167990   20.696803   20.524765 H          1 MOL1         0.3682
       5    C1      20.310481   19.824826   21.068740 C.3        1 MOL1         0.0252
       6    H4      20.685265   18.805520   20.944303 H          1 MOL1         0.0971
       7    H5      19.834359   20.127637   20.132193 H          1 MOL1         0.0971
       8    C2      19.270214   19.860825   22.206648 C.3        1 MOL1        -0.1369
       9    H6      18.875631   20.881184   22.300514 H          1 MOL1         0.0997
      10    H7      18.414767   19.234098   21.923882 H          1 MOL1         0.0997
      11    C3      19.822606   19.398701   23.580801 C.3        1 MOL1        -0.1329
      12    H8      19.007251   19.425867   24.316774 H          1 MOL1         0.0997
      13    H9      20.566917   20.124051   23.935872 H          1 MOL1         0.0997
      14    C4      20.458153   17.984803   23.584019 C.3        1 MOL1        -0.1305
      15    H10     21.337206   17.961349   22.925831 H          1 MOL1         0.0997
      16    H11     20.832608   17.770981   24.594916 H          1 MOL1         0.0997
      17    C5      19.471770   16.868382   23.172327 C.3        1 MOL1        -0.2320
      18    H12     19.156344   16.974974   22.126981 H          1 MOL1         0.1008
      19    H13     19.942226   15.882085   23.276139 H          1 MOL1         0.1008
      20    H14     18.575068   16.880640   23.805363 H          1 MOL1         0.1008
@<TRIPOS>BOND
    1     1     2    1
    2     1     3    1
    3     1     4    1
    4     1     5    1
    5     5     6    1
    6     5     7    1
    7     5     8    1
    8     8     9    1
    9     8    10    1
   10     8    11    1
   11    11    12    1
   12    11    13    1
   13    11    14    1
   14    14    15    1
   15    14    16    1
   16    14    17    1
   17    17    18    1
   18    17    19    1
   19    17    20    1
@<TRIPOS>SUBSTRUCTURE
       1 MOL1            1 RESIDUE      1      MOL     
@<SCITEGIC>MOL_PROPERTY
VConf Rank
SciTegic.value.IntegerValue
188

@<SCITEGIC>MOL_PROPERTY
Conf_Id
SciTegic.value.IntegerValue
1

@<SCITEGIC>MOL_PROPERTY
Delta U+W
SciTegic.value.DoubleValue
1.032

@<SCITEGIC>MOL_PROPERTY
U+W
SciTegic.value.DoubleValue
-10.746

@<SCITEGIC>MOL_PROPERTY
Grad RMS
SciTegic.value.DoubleValue
0.000000

@<SCITEGIC>MOL_PROPERTY
U
SciTegic.value.DoubleValue
47.562

@<SCITEGIC>MOL_PROPERTY
W
SciTegic.value.DoubleValue
-58.308

@<SCITEGIC>MOL_PROPERTY
W(PB)
SciTegic.value.DoubleValue
-60.184

@<SCITEGIC>MOL_PROPERTY
W(SA)
SciTegic.value.DoubleValue
1.877

@<SCITEGIC>MOL_PROPERTY
Valence
SciTegic.value.DoubleValue
2.149

@<SCITEGIC>MOL_PROPERTY
Coulomb
SciTegic.value.DoubleValue
45.035

@<SCITEGIC>MOL_PROPERTY
VdW
SciTegic.value.DoubleValue
0.378

@<SCITEGIC>MOL_PROPERTY
VdW6
SciTegic.value.DoubleValue
-5.599

@<SCITEGIC>MOL_PROPERTY
VdW12
SciTegic.value.DoubleValue
5.978

@<SCITEGIC>MOL_PROPERTY
Bond
SciTegic.value.DoubleValue
0.185

@<SCITEGIC>MOL_PROPERTY
Angle
SciTegic.value.DoubleValue
0.935

@<SCITEGIC>MOL_PROPERTY
Pdih
SciTegic.value.DoubleValue
1.028

@<SCITEGIC>MOL_PROPERTY
Idih
SciTegic.value.DoubleValue
0.000

@<SCITEGIC>MOL_PROPERTY
Tether
SciTegic.value.DoubleValue
0.000

@<TRIPOS>MOLECULE
guest-s11_confgen4.mol2 : confsearch ligand conformer 189
          20          19           1
SMALL
USER_CHARGES
 
@<TRIPOS>ATOM
       1    N1      18.244210   18.553847   23.566023 N.4        1 MOL1        -0.5919
       2    H1      17.598954   17.905050   23.104723 H          1 MOL1         0.3682
       3    H2      18.997353   17.992817   23.974317 H          1 MOL1         0.3682
       4    H3      17.731969   18.979796   24.345460 H          1 MOL1         0.3682
       5    C1      18.777291   19.598642   22.604782 C.3        1 MOL1         0.0252
       6    H4      19.428993   20.270234   23.165825 H          1 MOL1         0.0971
       7    H5      17.923935   20.180520   22.245997 H          1 MOL1         0.0971
       8    C2      19.530134   19.006118   21.394469 C.3        1 MOL1        -0.1369
       9    H6      18.844984   18.331101   20.864619 H          1 MOL1         0.0997
      10    H7      19.767953   19.809853   20.685194 H          1 MOL1         0.0997
      11    C3      20.824849   18.227647   21.752265 C.3        1 MOL1        -0.1329
      12    H8      21.032728   17.525862   20.932688 H          1 MOL1         0.0997
      13    H9      20.667587   17.601453   22.639887 H          1 MOL1         0.0997
      14    C4      22.088391   19.106214   21.940990 C.3        1 MOL1        -0.1305
      15    H10     22.949780   18.441565   22.096546 H          1 MOL1         0.0997
      16    H11     22.296877   19.659552   21.014635 H          1 MOL1         0.0997
      17    C5      22.012825   20.095922   23.124501 C.3        1 MOL1        -0.2320
      18    H12     21.693655   19.592384   24.046097 H          1 MOL1         0.1008
      19    H13     22.997511   20.543656   23.311201 H          1 MOL1         0.1008
      20    H14     21.319309   20.918528   22.913768 H          1 MOL1         0.1008
@<TRIPOS>BOND
    1     1     2    1
    2     1     3    1
    3     1     4    1
    4     1     5    1
    5     5     6    1
    6     5     7    1
    7     5     8    1
    8     8     9    1
    9     8    10    1
   10     8    11    1
   11    11    12    1
   12    11    13    1
   13    11    14    1
   14    14    15    1
   15    14    16    1
   16    14    17    1
   17    17    18    1
   18    17    19    1
   19    17    20    1
@<TRIPOS>SUBSTRUCTURE
       1 MOL1            1 RESIDUE      1      MOL     
@<SCITEGIC>MOL_PROPERTY
VConf Rank
SciTegic.value.IntegerValue
189

@<SCITEGIC>MOL_PROPERTY
Conf_Id
SciTegic.value.IntegerValue
80

@<SCITEGIC>MOL_PROPERTY
Delta U+W
SciTegic.value.DoubleValue
2.920

@<SCITEGIC>MOL_PROPERTY
U+W
SciTegic.value.DoubleValue
-8.857

@<SCITEGIC>MOL_PROPERTY
Grad RMS
SciTegic.value.DoubleValue
0.000000

@<SCITEGIC>MOL_PROPERTY
U
SciTegic.value.DoubleValue
49.434

@<SCITEGIC>MOL_PROPERTY
W
SciTegic.value.DoubleValue
-58.292

@<SCITEGIC>MOL_PROPERTY
W(PB)
SciTegic.value.DoubleValue
-60.170

@<SCITEGIC>MOL_PROPERTY
W(SA)
SciTegic.value.DoubleValue
1.879

@<SCITEGIC>MOL_PROPERTY
Valence
SciTegic.value.DoubleValue
3.798

@<SCITEGIC>MOL_PROPERTY
Coulomb
SciTegic.value.DoubleValue
45.253

@<SCITEGIC>MOL_PROPERTY
VdW
SciTegic.value.DoubleValue
0.384

@<SCITEGIC>MOL_PROPERTY
VdW6
SciTegic.value.DoubleValue
-5.595

@<SCITEGIC>MOL_PROPERTY
VdW12
SciTegic.value.DoubleValue
5.979

@<SCITEGIC>MOL_PROPERTY
Bond
SciTegic.value.DoubleValue
0.198

@<SCITEGIC>MOL_PROPERTY
Angle
SciTegic.value.DoubleValue
1.368

@<SCITEGIC>MOL_PROPERTY
Pdih
SciTegic.value.DoubleValue
2.231

@<SCITEGIC>MOL_PROPERTY
Idih
SciTegic.value.DoubleValue
0.000

@<SCITEGIC>MOL_PROPERTY
Tether
SciTegic.value.DoubleValue
0.000

@<TRIPOS>MOLECULE
guest-s11_confgen4.mol2 : confsearch ligand conformer 190
          20          19           1
SMALL
USER_CHARGES
 
@<TRIPOS>ATOM
       1    N1      19.513188   20.624021   24.205472 N.4        1 MOL1        -0.5919
       2    H1      18.925437   21.430850   23.973814 H          1 MOL1         0.3682
       3    H2      19.487702   20.519738   25.225189 H          1 MOL1         0.3682
       4    H3      20.475384   20.868090   23.953886 H          1 MOL1         0.3682
       5    C1      19.047921   19.365360   23.499032 C.3        1 MOL1         0.0252
       6    H4      18.035178   19.147694   23.849027 H          1 MOL1         0.0971
       7    H5      19.694873   18.544844   23.813235 H          1 MOL1         0.0971
       8    C2      19.036959   19.481929   21.959871 C.3        1 MOL1        -0.1369
       9    H6      18.568631   18.586317   21.530726 H          1 MOL1         0.0997
      10    H7      18.384628   20.321989   21.686773 H          1 MOL1         0.0997
      11    C3      20.432231   19.699598   21.314764 C.3        1 MOL1        -0.1329
      12    H8      21.021084   20.418636   21.898679 H          1 MOL1         0.0997
      13    H9      20.279683   20.173859   20.335361 H          1 MOL1         0.0997
      14    C4      21.255995   18.407201   21.079888 C.3        1 MOL1        -0.1305
      15    H10     20.701587   17.729872   20.415329 H          1 MOL1         0.0997
      16    H11     22.173713   18.677440   20.538859 H          1 MOL1         0.0997
      17    C5      21.650830   17.652877   22.368697 C.3        1 MOL1        -0.2320
      18    H12     20.782847   17.165541   22.828220 H          1 MOL1         0.1008
      19    H13     22.380656   16.865043   22.141538 H          1 MOL1         0.1008
      20    H14     22.106003   18.329348   23.103520 H          1 MOL1         0.1008
@<TRIPOS>BOND
    1     1     2    1
    2     1     3    1
    3     1     4    1
    4     1     5    1
    5     5     6    1
    6     5     7    1
    7     5     8    1
    8     8     9    1
    9     8    10    1
   10     8    11    1
   11    11    12    1
   12    11    13    1
   13    11    14    1
   14    14    15    1
   15    14    16    1
   16    14    17    1
   17    17    18    1
   18    17    19    1
   19    17    20    1
@<TRIPOS>SUBSTRUCTURE
       1 MOL1            1 RESIDUE      1      MOL     
@<SCITEGIC>MOL_PROPERTY
VConf Rank
SciTegic.value.IntegerValue
190

@<SCITEGIC>MOL_PROPERTY
Conf_Id
SciTegic.value.IntegerValue
65

@<SCITEGIC>MOL_PROPERTY
Delta U+W
SciTegic.value.DoubleValue
2.949

@<SCITEGIC>MOL_PROPERTY
U+W
SciTegic.value.DoubleValue
-8.829

@<SCITEGIC>MOL_PROPERTY
Grad RMS
SciTegic.value.DoubleValue
0.000000

@<SCITEGIC>MOL_PROPERTY
U
SciTegic.value.DoubleValue
49.435

@<SCITEGIC>MOL_PROPERTY
W
SciTegic.value.DoubleValue
-58.263

@<SCITEGIC>MOL_PROPERTY
W(PB)
SciTegic.value.DoubleValue
-60.125

@<SCITEGIC>MOL_PROPERTY
W(SA)
SciTegic.value.DoubleValue
1.862

@<SCITEGIC>MOL_PROPERTY
Valence
SciTegic.value.DoubleValue
3.797

@<SCITEGIC>MOL_PROPERTY
Coulomb
SciTegic.value.DoubleValue
45.253

@<SCITEGIC>MOL_PROPERTY
VdW
SciTegic.value.DoubleValue
0.384

@<SCITEGIC>MOL_PROPERTY
VdW6
SciTegic.value.DoubleValue
-5.596

@<SCITEGIC>MOL_PROPERTY
VdW12
SciTegic.value.DoubleValue
5.980

@<SCITEGIC>MOL_PROPERTY
Bond
SciTegic.value.DoubleValue
0.198

@<SCITEGIC>MOL_PROPERTY
Angle
SciTegic.value.DoubleValue
1.369

@<SCITEGIC>MOL_PROPERTY
Pdih
SciTegic.value.DoubleValue
2.230

@<SCITEGIC>MOL_PROPERTY
Idih
SciTegic.value.DoubleValue
0.000

@<SCITEGIC>MOL_PROPERTY
Tether
SciTegic.value.DoubleValue
0.000

@<TRIPOS>MOLECULE
guest-s11_confgen4.mol2 : confsearch ligand conformer 191
          20          19           1
SMALL
USER_CHARGES
 
@<TRIPOS>ATOM
       1    N1      20.045817   17.271110   22.671014 N.4        1 MOL1        -0.5919
       2    H1      20.708219   16.495571   22.777997 H          1 MOL1         0.3682
       3    H2      20.180563   17.900641   23.468045 H          1 MOL1         0.3682
       4    H3      19.105002   16.872831   22.752545 H          1 MOL1         0.3682
       5    C1      20.236771   17.997847   21.353840 C.3        1 MOL1         0.0252
       6    H4      20.075658   17.265090   20.558459 H          1 MOL1         0.0971
       7    H5      21.271797   18.344254   21.291207 H          1 MOL1         0.0971
       8    C2      19.273700   19.184592   21.147586 C.3        1 MOL1        -0.1369
       9    H6      19.193126   19.364902   20.067398 H          1 MOL1         0.0997
      10    H7      18.264601   18.906533   21.479566 H          1 MOL1         0.0997
      11    C3      19.710335   20.514855   21.818118 C.3        1 MOL1        -0.1329
      12    H8      18.968738   21.278579   21.545568 H          1 MOL1         0.0997
      13    H9      20.658997   20.859455   21.383657 H          1 MOL1         0.0997
      14    C4      19.815441   20.478692   23.364134 C.3        1 MOL1        -0.1305
      15    H10     19.493004   21.452279   23.759634 H          1 MOL1         0.0997
      16    H11     19.112842   19.744129   23.780108 H          1 MOL1         0.0997
      17    C5      21.254111   20.216559   23.869439 C.3        1 MOL1        -0.2320
      18    H12     21.680329   19.293692   23.461700 H          1 MOL1         0.1008
      19    H13     21.920090   21.040820   23.582410 H          1 MOL1         0.1008
      20    H14     21.272286   20.143786   24.964681 H          1 MOL1         0.1008
@<TRIPOS>BOND
    1     1     2    1
    2     1     3    1
    3     1     4    1
    4     1     5    1
    5     5     6    1
    6     5     7    1
    7     5     8    1
    8     8     9    1
    9     8    10    1
   10     8    11    1
   11    11    12    1
   12    11    13    1
   13    11    14    1
   14    14    15    1
   15    14    16    1
   16    14    17    1
   17    17    18    1
   18    17    19    1
   19    17    20    1
@<TRIPOS>SUBSTRUCTURE
       1 MOL1            1 RESIDUE      1      MOL     
@<SCITEGIC>MOL_PROPERTY
VConf Rank
SciTegic.value.IntegerValue
191

@<SCITEGIC>MOL_PROPERTY
Conf_Id
SciTegic.value.IntegerValue
77

@<SCITEGIC>MOL_PROPERTY
Delta U+W
SciTegic.value.DoubleValue
5.366

@<SCITEGIC>MOL_PROPERTY
U+W
SciTegic.value.DoubleValue
-6.412

@<SCITEGIC>MOL_PROPERTY
Grad RMS
SciTegic.value.DoubleValue
0.000000

@<SCITEGIC>MOL_PROPERTY
U
SciTegic.value.DoubleValue
51.542

@<SCITEGIC>MOL_PROPERTY
W
SciTegic.value.DoubleValue
-57.954

@<SCITEGIC>MOL_PROPERTY
W(PB)
SciTegic.value.DoubleValue
-59.811

@<SCITEGIC>MOL_PROPERTY
W(SA)
SciTegic.value.DoubleValue
1.857

@<SCITEGIC>MOL_PROPERTY
Valence
SciTegic.value.DoubleValue
5.347

@<SCITEGIC>MOL_PROPERTY
Coulomb
SciTegic.value.DoubleValue
45.870

@<SCITEGIC>MOL_PROPERTY
VdW
SciTegic.value.DoubleValue
0.325

@<SCITEGIC>MOL_PROPERTY
VdW6
SciTegic.value.DoubleValue
-6.161

@<SCITEGIC>MOL_PROPERTY
VdW12
SciTegic.value.DoubleValue
6.486

@<SCITEGIC>MOL_PROPERTY
Bond
SciTegic.value.DoubleValue
0.201

@<SCITEGIC>MOL_PROPERTY
Angle
SciTegic.value.DoubleValue
1.484

@<SCITEGIC>MOL_PROPERTY
Pdih
SciTegic.value.DoubleValue
3.662

@<SCITEGIC>MOL_PROPERTY
Idih
SciTegic.value.DoubleValue
0.000

@<SCITEGIC>MOL_PROPERTY
Tether
SciTegic.value.DoubleValue
0.000

@<TRIPOS>MOLECULE
guest-s11_confgen4.mol2 : confsearch ligand conformer 192
          20          19           1
SMALL
USER_CHARGES
 
@<TRIPOS>ATOM
       1    N1      20.925064   20.741624   23.126579 N.4        1 MOL1        -0.5919
       2    H1      20.620227   21.003128   24.069498 H          1 MOL1         0.3682
       3    H2      21.447217   19.863814   23.207401 H          1 MOL1         0.3682
       4    H3      21.584663   21.462728   22.815740 H          1 MOL1         0.3682
       5    C1      19.752727   20.602122   22.174882 C.3        1 MOL1         0.0252
       6    H4      20.136986   20.388130   21.174006 H          1 MOL1         0.0971
       7    H5      19.248814   21.572002   22.144501 H          1 MOL1         0.0971
       8    C2      18.735543   19.519110   22.588202 C.3        1 MOL1        -0.1369
       9    H6      18.560404   19.567487   23.671158 H          1 MOL1         0.0997
      10    H7      17.774309   19.768010   22.119279 H          1 MOL1         0.0997
      11    C3      19.105137   18.070587   22.169817 C.3        1 MOL1        -0.1329
      12    H8      19.146923   17.996370   21.074276 H          1 MOL1         0.0997
      13    H9      18.275257   17.418693   22.476182 H          1 MOL1         0.0997
      14    C4      20.409841   17.509900   22.791023 C.3        1 MOL1        -0.1305
      15    H10     20.596553   17.968092   23.771565 H          1 MOL1         0.0997
      16    H11     20.270827   16.437473   22.988087 H          1 MOL1         0.0997
      17    C5      21.639310   17.664449   21.864556 C.3        1 MOL1        -0.2320
      18    H12     22.548356   17.306098   22.364958 H          1 MOL1         0.1008
      19    H13     21.510321   17.070970   20.949971 H          1 MOL1         0.1008
      20    H14     21.807395   18.703081   21.560278 H          1 MOL1         0.1008
@<TRIPOS>BOND
    1     1     2    1
    2     1     3    1
    3     1     4    1
    4     1     5    1
    5     5     6    1
    6     5     7    1
    7     5     8    1
    8     8     9    1
    9     8    10    1
   10     8    11    1
   11    11    12    1
   12    11    13    1
   13    11    14    1
   14    14    15    1
   15    14    16    1
   16    14    17    1
   17    17    18    1
   18    17    19    1
   19    17    20    1
@<TRIPOS>SUBSTRUCTURE
       1 MOL1            1 RESIDUE      1      MOL     
@<SCITEGIC>MOL_PROPERTY
VConf Rank
SciTegic.value.IntegerValue
192

@<SCITEGIC>MOL_PROPERTY
Conf_Id
SciTegic.value.IntegerValue
67

@<SCITEGIC>MOL_PROPERTY
Delta U+W
SciTegic.value.DoubleValue
5.353

@<SCITEGIC>MOL_PROPERTY
U+W
SciTegic.value.DoubleValue
-6.425

@<SCITEGIC>MOL_PROPERTY
Grad RMS
SciTegic.value.DoubleValue
0.000000

@<SCITEGIC>MOL_PROPERTY
U
SciTegic.value.DoubleValue
51.541

@<SCITEGIC>MOL_PROPERTY
W
SciTegic.value.DoubleValue
-57.966

@<SCITEGIC>MOL_PROPERTY
W(PB)
SciTegic.value.DoubleValue
-59.821

@<SCITEGIC>MOL_PROPERTY
W(SA)
SciTegic.value.DoubleValue
1.855

@<SCITEGIC>MOL_PROPERTY
Valence
SciTegic.value.DoubleValue
5.347

@<SCITEGIC>MOL_PROPERTY
Coulomb
SciTegic.value.DoubleValue
45.870

@<SCITEGIC>MOL_PROPERTY
VdW
SciTegic.value.DoubleValue
0.325

@<SCITEGIC>MOL_PROPERTY
VdW6
SciTegic.value.DoubleValue
-6.161

@<SCITEGIC>MOL_PROPERTY
VdW12
SciTegic.value.DoubleValue
6.486

@<SCITEGIC>MOL_PROPERTY
Bond
SciTegic.value.DoubleValue
0.201

@<SCITEGIC>MOL_PROPERTY
Angle
SciTegic.value.DoubleValue
1.485

@<SCITEGIC>MOL_PROPERTY
Pdih
SciTegic.value.DoubleValue
3.662

@<SCITEGIC>MOL_PROPERTY
Idih
SciTegic.value.DoubleValue
0.000

@<SCITEGIC>MOL_PROPERTY
Tether
SciTegic.value.DoubleValue
0.000

@<TRIPOS>MOLECULE
guest-s11_confgen4.mol2 : confsearch ligand conformer 193
          20          19           1
SMALL
USER_CHARGES
 
@<TRIPOS>ATOM
       1    N1      17.032392   18.430429   22.106824 N.4        1 MOL1        -0.5919
       2    H1      16.780628   19.213274   21.495141 H          1 MOL1         0.3682
       3    H2      16.469623   17.626942   21.807994 H          1 MOL1         0.3682
       4    H3      16.722023   18.675139   23.052433 H          1 MOL1         0.3682
       5    C1      18.516475   18.127755   22.058082 C.3        1 MOL1         0.0252
       6    H4      18.770103   17.846662   21.032326 H          1 MOL1         0.0971
       7    H5      18.707139   17.268307   22.706551 H          1 MOL1         0.0971
       8    C2      19.390782   19.314646   22.500961 C.3        1 MOL1        -0.1369
       9    H6      19.184416   20.180134   21.857215 H          1 MOL1         0.0997
      10    H7      19.121677   19.603787   23.525680 H          1 MOL1         0.0997
      11    C3      20.894253   18.965096   22.436744 C.3        1 MOL1        -0.1329
      12    H8      21.158854   18.671249   21.411351 H          1 MOL1         0.0997
      13    H9      21.096217   18.095645   23.077882 H          1 MOL1         0.0997
      14    C4      21.782052   20.149792   22.879289 C.3        1 MOL1        -0.1305
      15    H10     21.584681   21.021161   22.239126 H          1 MOL1         0.0997
      16    H11     21.522132   20.445581   23.905446 H          1 MOL1         0.0997
      17    C5      23.283211   19.796010   22.813429 C.3        1 MOL1        -0.2320
      18    H12     23.581625   19.528782   21.791298 H          1 MOL1         0.1008
      19    H13     23.896888   20.648993   23.131021 H          1 MOL1         0.1008
      20    H14     23.518623   18.948804   23.470725 H          1 MOL1         0.1008
@<TRIPOS>BOND
    1     1     2    1
    2     1     3    1
    3     1     4    1
    4     1     5    1
    5     5     6    1
    6     5     7    1
    7     5     8    1
    8     8     9    1
    9     8    10    1
   10     8    11    1
   11    11    12    1
   12    11    13    1
   13    11    14    1
   14    14    15    1
   15    14    16    1
   16    14    17    1
   17    17    18    1
   18    17    19    1
   19    17    20    1
@<TRIPOS>SUBSTRUCTURE
       1 MOL1            1 RESIDUE      1      MOL     
@<SCITEGIC>MOL_PROPERTY
VConf Rank
SciTegic.value.IntegerValue
193

@<SCITEGIC>MOL_PROPERTY
Conf_Id
SciTegic.value.IntegerValue
72

@<SCITEGIC>MOL_PROPERTY
Delta U+W
SciTegic.value.DoubleValue
0.000

@<SCITEGIC>MOL_PROPERTY
U+W
SciTegic.value.DoubleValue
-11.778

@<SCITEGIC>MOL_PROPERTY
Grad RMS
SciTegic.value.DoubleValue
0.000000

@<SCITEGIC>MOL_PROPERTY
U
SciTegic.value.DoubleValue
45.772

@<SCITEGIC>MOL_PROPERTY
W
SciTegic.value.DoubleValue
-57.550

@<SCITEGIC>MOL_PROPERTY
W(PB)
SciTegic.value.DoubleValue
-59.511

@<SCITEGIC>MOL_PROPERTY
W(SA)
SciTegic.value.DoubleValue
1.961

@<SCITEGIC>MOL_PROPERTY
Valence
SciTegic.value.DoubleValue
1.299

@<SCITEGIC>MOL_PROPERTY
Coulomb
SciTegic.value.DoubleValue
44.177

@<SCITEGIC>MOL_PROPERTY
VdW
SciTegic.value.DoubleValue
0.297

@<SCITEGIC>MOL_PROPERTY
VdW6
SciTegic.value.DoubleValue
-3.490

@<SCITEGIC>MOL_PROPERTY
VdW12
SciTegic.value.DoubleValue
3.786

@<SCITEGIC>MOL_PROPERTY
Bond
SciTegic.value.DoubleValue
0.096

@<SCITEGIC>MOL_PROPERTY
Angle
SciTegic.value.DoubleValue
0.381

@<SCITEGIC>MOL_PROPERTY
Pdih
SciTegic.value.DoubleValue
0.822

@<SCITEGIC>MOL_PROPERTY
Idih
SciTegic.value.DoubleValue
0.000

@<SCITEGIC>MOL_PROPERTY
Tether
SciTegic.value.DoubleValue
0.000

@<TRIPOS>MOLECULE
guest-s11_confgen4.mol2 : confsearch ligand conformer 194
          20          19           1
SMALL
USER_CHARGES
 
@<TRIPOS>ATOM
       1    N1      17.682154   19.291166   24.260795 N.4        1 MOL1        -0.5919
       2    H1      17.197366   18.594810   23.685986 H          1 MOL1         0.3682
       3    H2      18.080872   18.794364   25.063650 H          1 MOL1         0.3682
       4    H3      16.964341   19.923918   24.629509 H          1 MOL1         0.3682
       5    C1      18.740493   20.037857   23.474063 C.3        1 MOL1         0.0252
       6    H4      19.192389   20.780597   24.137103 H          1 MOL1         0.0971
       7    H5      18.243213   20.565703   22.655774 H          1 MOL1         0.0971
       8    C2      19.835046   19.116568   22.906218 C.3        1 MOL1        -0.1369
       9    H6      20.320918   18.576708   23.729802 H          1 MOL1         0.0997
      10    H7      19.368547   18.364935   22.256993 H          1 MOL1         0.0997
      11    C3      20.893411   19.920043   22.114117 C.3        1 MOL1        -0.1329
      12    H8      21.293571   20.716023   22.757568 H          1 MOL1         0.0997
      13    H9      20.414961   20.423317   21.262420 H          1 MOL1         0.0997
      14    C4      22.073958   19.055814   21.608067 C.3        1 MOL1        -0.1305
      15    H10     22.824510   19.716514   21.151901 H          1 MOL1         0.0997
      16    H11     22.570449   18.569337   22.459368 H          1 MOL1         0.0997
      17    C5      21.654573   17.988364   20.571634 C.3        1 MOL1        -0.2320
      18    H12     21.130414   18.446222   19.722730 H          1 MOL1         0.1008
      19    H13     22.537032   17.466912   20.178814 H          1 MOL1         0.1008
      20    H14     20.995809   17.231726   21.015426 H          1 MOL1         0.1008
@<TRIPOS>BOND
    1     1     2    1
    2     1     3    1
    3     1     4    1
    4     1     5    1
    5     5     6    1
    6     5     7    1
    7     5     8    1
    8     8     9    1
    9     8    10    1
   10     8    11    1
   11    11    12    1
   12    11    13    1
   13    11    14    1
   14    14    15    1
   15    14    16    1
   16    14    17    1
   17    17    18    1
   18    17    19    1
   19    17    20    1
@<TRIPOS>SUBSTRUCTURE
       1 MOL1            1 RESIDUE      1      MOL     
@<SCITEGIC>MOL_PROPERTY
VConf Rank
SciTegic.value.IntegerValue
194

@<SCITEGIC>MOL_PROPERTY
Conf_Id
SciTegic.value.IntegerValue
42

@<SCITEGIC>MOL_PROPERTY
Delta U+W
SciTegic.value.DoubleValue
0.508

@<SCITEGIC>MOL_PROPERTY
U+W
SciTegic.value.DoubleValue
-11.270

@<SCITEGIC>MOL_PROPERTY
Grad RMS
SciTegic.value.DoubleValue
0.000000

@<SCITEGIC>MOL_PROPERTY
U
SciTegic.value.DoubleValue
46.486

@<SCITEGIC>MOL_PROPERTY
W
SciTegic.value.DoubleValue
-57.756

@<SCITEGIC>MOL_PROPERTY
W(PB)
SciTegic.value.DoubleValue
-59.705

@<SCITEGIC>MOL_PROPERTY
W(SA)
SciTegic.value.DoubleValue
1.949

@<SCITEGIC>MOL_PROPERTY
Valence
SciTegic.value.DoubleValue
1.806

@<SCITEGIC>MOL_PROPERTY
Coulomb
SciTegic.value.DoubleValue
44.248

@<SCITEGIC>MOL_PROPERTY
VdW
SciTegic.value.DoubleValue
0.433

@<SCITEGIC>MOL_PROPERTY
VdW6
SciTegic.value.DoubleValue
-4.089

@<SCITEGIC>MOL_PROPERTY
VdW12
SciTegic.value.DoubleValue
4.522

@<SCITEGIC>MOL_PROPERTY
Bond
SciTegic.value.DoubleValue
0.131

@<SCITEGIC>MOL_PROPERTY
Angle
SciTegic.value.DoubleValue
0.628

@<SCITEGIC>MOL_PROPERTY
Pdih
SciTegic.value.DoubleValue
1.047

@<SCITEGIC>MOL_PROPERTY
Idih
SciTegic.value.DoubleValue
0.000

@<SCITEGIC>MOL_PROPERTY
Tether
SciTegic.value.DoubleValue
0.000

@<TRIPOS>MOLECULE
guest-s11_confgen4.mol2 : confsearch ligand conformer 195
          20          19           1
SMALL
USER_CHARGES
 
@<TRIPOS>ATOM
       1    N1      19.382580   16.757138   20.711135 N.4        1 MOL1        -0.5919
       2    H1      19.519331   16.006547   21.395442 H          1 MOL1         0.3682
       3    H2      18.394674   17.026642   20.752868 H          1 MOL1         0.3682
       4    H3      19.539795   16.346785   19.784596 H          1 MOL1         0.3682
       5    C1      20.302343   17.933572   20.969245 C.3        1 MOL1         0.0252
       6    H4      20.124563   18.678636   20.189001 H          1 MOL1         0.0971
       7    H5      21.333609   17.581632   20.879109 H          1 MOL1         0.0971
       8    C2      20.092697   18.573470   22.353388 C.3        1 MOL1        -0.1369
       9    H6      19.050727   18.906618   22.439284 H          1 MOL1         0.0997
      10    H7      20.256662   17.817931   23.133189 H          1 MOL1         0.0997
      11    C3      21.052272   19.766603   22.574256 C.3        1 MOL1        -0.1329
      12    H8      20.856751   20.543106   21.821659 H          1 MOL1         0.0997
      13    H9      22.085348   19.430159   22.409021 H          1 MOL1         0.0997
      14    C4      20.955842   20.383047   23.991072 C.3        1 MOL1        -0.1305
      15    H10     21.174254   19.615170   24.746412 H          1 MOL1         0.0997
      16    H11     21.737641   21.148281   24.096642 H          1 MOL1         0.0997
      17    C5      19.583350   21.029093   24.288431 C.3        1 MOL1        -0.2320
      18    H12     18.781837   20.280521   24.313764 H          1 MOL1         0.1008
      19    H13     19.597837   21.529050   25.265562 H          1 MOL1         0.1008
      20    H14     19.328227   21.781412   23.530842 H          1 MOL1         0.1008
@<TRIPOS>BOND
    1     1     2    1
    2     1     3    1
    3     1     4    1
    4     1     5    1
    5     5     6    1
    6     5     7    1
    7     5     8    1
    8     8     9    1
    9     8    10    1
   10     8    11    1
   11    11    12    1
   12    11    13    1
   13    11    14    1
   14    14    15    1
   15    14    16    1
   16    14    17    1
   17    17    18    1
   18    17    19    1
   19    17    20    1
@<TRIPOS>SUBSTRUCTURE
       1 MOL1            1 RESIDUE      1      MOL     
@<SCITEGIC>MOL_PROPERTY
VConf Rank
SciTegic.value.IntegerValue
195

@<SCITEGIC>MOL_PROPERTY
Conf_Id
SciTegic.value.IntegerValue
41

@<SCITEGIC>MOL_PROPERTY
Delta U+W
SciTegic.value.DoubleValue
0.515

@<SCITEGIC>MOL_PROPERTY
U+W
SciTegic.value.DoubleValue
-11.263

@<SCITEGIC>MOL_PROPERTY
Grad RMS
SciTegic.value.DoubleValue
0.000000

@<SCITEGIC>MOL_PROPERTY
U
SciTegic.value.DoubleValue
46.486

@<SCITEGIC>MOL_PROPERTY
W
SciTegic.value.DoubleValue
-57.749

@<SCITEGIC>MOL_PROPERTY
W(PB)
SciTegic.value.DoubleValue
-59.685

@<SCITEGIC>MOL_PROPERTY
W(SA)
SciTegic.value.DoubleValue
1.936

@<SCITEGIC>MOL_PROPERTY
Valence
SciTegic.value.DoubleValue
1.806

@<SCITEGIC>MOL_PROPERTY
Coulomb
SciTegic.value.DoubleValue
44.248

@<SCITEGIC>MOL_PROPERTY
VdW
SciTegic.value.DoubleValue
0.433

@<SCITEGIC>MOL_PROPERTY
VdW6
SciTegic.value.DoubleValue
-4.089

@<SCITEGIC>MOL_PROPERTY
VdW12
SciTegic.value.DoubleValue
4.522

@<SCITEGIC>MOL_PROPERTY
Bond
SciTegic.value.DoubleValue
0.131

@<SCITEGIC>MOL_PROPERTY
Angle
SciTegic.value.DoubleValue
0.628

@<SCITEGIC>MOL_PROPERTY
Pdih
SciTegic.value.DoubleValue
1.047

@<SCITEGIC>MOL_PROPERTY
Idih
SciTegic.value.DoubleValue
0.000

@<SCITEGIC>MOL_PROPERTY
Tether
SciTegic.value.DoubleValue
0.000

@<TRIPOS>MOLECULE
guest-s11_confgen4.mol2 : confsearch ligand conformer 196
          20          19           1
SMALL
USER_CHARGES
 
@<TRIPOS>ATOM
       1    N1      20.024207   18.843585   19.714250 N.4        1 MOL1        -0.5919
       2    H1      19.652712   18.397992   18.868709 H          1 MOL1         0.3682
       3    H2      19.465670   19.686515   19.876869 H          1 MOL1         0.3682
       4    H3      20.977465   19.149424   19.495261 H          1 MOL1         0.3682
       5    C1      19.991573   17.905325   20.905369 C.3        1 MOL1         0.0252
       6    H4      20.569576   17.015589   20.641015 H          1 MOL1         0.0971
       7    H5      18.954566   17.600245   21.069638 H          1 MOL1         0.0971
       8    C2      20.563135   18.517978   22.199140 C.3        1 MOL1        -0.1369
       9    H6      20.602376   17.727726   22.959121 H          1 MOL1         0.0997
      10    H7      21.598755   18.839243   22.026026 H          1 MOL1         0.0997
      11    C3      19.718040   19.706587   22.722722 C.3        1 MOL1        -0.1329
      12    H8      18.689146   19.372260   22.915259 H          1 MOL1         0.0997
      13    H9      19.651515   20.478517   21.944708 H          1 MOL1         0.0997
      14    C4      20.297339   20.358715   24.001833 C.3        1 MOL1        -0.1305
      15    H10     21.321907   20.707208   23.810316 H          1 MOL1         0.0997
      16    H11     19.707537   21.255611   24.237740 H          1 MOL1         0.0997
      17    C5      20.287982   19.420950   25.230764 C.3        1 MOL1        -0.2320
      18    H12     20.963979   18.568030   25.093562 H          1 MOL1         0.1008
      19    H13     20.617691   19.960697   26.127933 H          1 MOL1         0.1008
      20    H14     19.279361   19.033549   25.424693 H          1 MOL1         0.1008
@<TRIPOS>BOND
    1     1     2    1
    2     1     3    1
    3     1     4    1
    4     1     5    1
    5     5     6    1
    6     5     7    1
    7     5     8    1
    8     8     9    1
    9     8    10    1
   10     8    11    1
   11    11    12    1
   12    11    13    1
   13    11    14    1
   14    14    15    1
   15    14    16    1
   16    14    17    1
   17    17    18    1
   18    17    19    1
   19    17    20    1
@<TRIPOS>SUBSTRUCTURE
       1 MOL1            1 RESIDUE      1      MOL     
@<SCITEGIC>MOL_PROPERTY
VConf Rank
SciTegic.value.IntegerValue
196

@<SCITEGIC>MOL_PROPERTY
Conf_Id
SciTegic.value.IntegerValue
33

@<SCITEGIC>MOL_PROPERTY
Delta U+W
SciTegic.value.DoubleValue
0.703

@<SCITEGIC>MOL_PROPERTY
U+W
SciTegic.value.DoubleValue
-11.075

@<SCITEGIC>MOL_PROPERTY
Grad RMS
SciTegic.value.DoubleValue
0.000000

@<SCITEGIC>MOL_PROPERTY
U
SciTegic.value.DoubleValue
47.080

@<SCITEGIC>MOL_PROPERTY
W
SciTegic.value.DoubleValue
-58.154

@<SCITEGIC>MOL_PROPERTY
W(PB)
SciTegic.value.DoubleValue
-60.053

@<SCITEGIC>MOL_PROPERTY
W(SA)
SciTegic.value.DoubleValue
1.899

@<SCITEGIC>MOL_PROPERTY
Valence
SciTegic.value.DoubleValue
1.943

@<SCITEGIC>MOL_PROPERTY
Coulomb
SciTegic.value.DoubleValue
44.572

@<SCITEGIC>MOL_PROPERTY
VdW
SciTegic.value.DoubleValue
0.565

@<SCITEGIC>MOL_PROPERTY
VdW6
SciTegic.value.DoubleValue
-4.575

@<SCITEGIC>MOL_PROPERTY
VdW12
SciTegic.value.DoubleValue
5.139

@<SCITEGIC>MOL_PROPERTY
Bond
SciTegic.value.DoubleValue
0.158

@<SCITEGIC>MOL_PROPERTY
Angle
SciTegic.value.DoubleValue
0.700

@<SCITEGIC>MOL_PROPERTY
Pdih
SciTegic.value.DoubleValue
1.085

@<SCITEGIC>MOL_PROPERTY
Idih
SciTegic.value.DoubleValue
0.000

@<SCITEGIC>MOL_PROPERTY
Tether
SciTegic.value.DoubleValue
0.000

@<TRIPOS>MOLECULE
guest-s11_confgen4.mol2 : confsearch ligand conformer 197
          20          19           1
SMALL
USER_CHARGES
 
@<TRIPOS>ATOM
       1    N1      20.475332   18.958149   25.205004 N.4        1 MOL1        -0.5919
       2    H1      21.052416   18.793326   26.036453 H          1 MOL1         0.3682
       3    H2      19.741221   19.618861   25.478378 H          1 MOL1         0.3682
       4    H3      20.015747   18.070833   24.980527 H          1 MOL1         0.3682
       5    C1      21.298994   19.478112   24.042515 C.3        1 MOL1         0.0252
       6    H4      22.074088   18.740352   23.818056 H          1 MOL1         0.0971
       7    H5      21.790508   20.397905   24.371142 H          1 MOL1         0.0971
       8    C2      20.474629   19.767060   22.772558 C.3        1 MOL1        -0.1369
       9    H6      19.686213   20.495036   23.005244 H          1 MOL1         0.0997
      10    H7      21.137329   20.245115   22.040505 H          1 MOL1         0.0997
      11    C3      19.852631   18.487434   22.158723 C.3        1 MOL1        -0.1329
      12    H8      19.219295   17.993519   22.907417 H          1 MOL1         0.0997
      13    H9      20.648937   17.773045   21.907696 H          1 MOL1         0.0997
      14    C4      18.990451   18.762561   20.902568 C.3        1 MOL1        -0.1305
      15    H10     18.498670   17.826953   20.601354 H          1 MOL1         0.0997
      16    H11     18.183953   19.466326   21.151852 H          1 MOL1         0.0997
      17    C5      19.802216   19.304951   19.703979 C.3        1 MOL1        -0.2320
      18    H12     20.634762   18.634377   19.454573 H          1 MOL1         0.1008
      19    H13     19.163583   19.390866   18.815321 H          1 MOL1         0.1008
      20    H14     20.212477   20.300954   19.911188 H          1 MOL1         0.1008
@<TRIPOS>BOND
    1     1     2    1
    2     1     3    1
    3     1     4    1
    4     1     5    1
    5     5     6    1
    6     5     7    1
    7     5     8    1
    8     8     9    1
    9     8    10    1
   10     8    11    1
   11    11    12    1
   12    11    13    1
   13    11    14    1
   14    14    15    1
   15    14    16    1
   16    14    17    1
   17    17    18    1
   18    17    19    1
   19    17    20    1
@<TRIPOS>SUBSTRUCTURE
       1 MOL1            1 RESIDUE      1      MOL     
@<SCITEGIC>MOL_PROPERTY
VConf Rank
SciTegic.value.IntegerValue
197

@<SCITEGIC>MOL_PROPERTY
Conf_Id
SciTegic.value.IntegerValue
24

@<SCITEGIC>MOL_PROPERTY
Delta U+W
SciTegic.value.DoubleValue
0.847

@<SCITEGIC>MOL_PROPERTY
U+W
SciTegic.value.DoubleValue
-10.931

@<SCITEGIC>MOL_PROPERTY
Grad RMS
SciTegic.value.DoubleValue
0.000000

@<SCITEGIC>MOL_PROPERTY
U
SciTegic.value.DoubleValue
47.080

@<SCITEGIC>MOL_PROPERTY
W
SciTegic.value.DoubleValue
-58.011

@<SCITEGIC>MOL_PROPERTY
W(PB)
SciTegic.value.DoubleValue
-59.914

@<SCITEGIC>MOL_PROPERTY
W(SA)
SciTegic.value.DoubleValue
1.903

@<SCITEGIC>MOL_PROPERTY
Valence
SciTegic.value.DoubleValue
1.943

@<SCITEGIC>MOL_PROPERTY
Coulomb
SciTegic.value.DoubleValue
44.572

@<SCITEGIC>MOL_PROPERTY
VdW
SciTegic.value.DoubleValue
0.565

@<SCITEGIC>MOL_PROPERTY
VdW6
SciTegic.value.DoubleValue
-4.575

@<SCITEGIC>MOL_PROPERTY
VdW12
SciTegic.value.DoubleValue
5.140

@<SCITEGIC>MOL_PROPERTY
Bond
SciTegic.value.DoubleValue
0.158

@<SCITEGIC>MOL_PROPERTY
Angle
SciTegic.value.DoubleValue
0.700

@<SCITEGIC>MOL_PROPERTY
Pdih
SciTegic.value.DoubleValue
1.085

@<SCITEGIC>MOL_PROPERTY
Idih
SciTegic.value.DoubleValue
0.000

@<SCITEGIC>MOL_PROPERTY
Tether
SciTegic.value.DoubleValue
0.000

@<TRIPOS>MOLECULE
guest-s11_confgen4.mol2 : confsearch ligand conformer 198
          20          19           1
SMALL
USER_CHARGES
 
@<TRIPOS>ATOM
       1    N1      22.312099   18.110381   23.750857 N.4        1 MOL1        -0.5919
       2    H1      22.619583   18.278532   24.714532 H          1 MOL1         0.3682
       3    H2      21.885828   17.178609   23.733068 H          1 MOL1         0.3682
       4    H3      23.157323   18.066053   23.172981 H          1 MOL1         0.3682
       5    C1      21.353492   19.181248   23.270604 C.3        1 MOL1         0.0252
       6    H4      21.861156   20.146819   23.343596 H          1 MOL1         0.0971
       7    H5      20.495275   19.191778   23.947610 H          1 MOL1         0.0971
       8    C2      20.871268   18.957705   21.824882 C.3        1 MOL1        -0.1369
       9    H6      21.743222   18.907263   21.159366 H          1 MOL1         0.0997
      10    H7      20.369524   17.984636   21.748436 H          1 MOL1         0.0997
      11    C3      19.927600   20.081031   21.327262 C.3        1 MOL1        -0.1329
      12    H8      19.633032   19.865732   20.290856 H          1 MOL1         0.0997
      13    H9      20.486388   21.026552   21.292078 H          1 MOL1         0.0997
      14    C4      18.652327   20.287059   22.184266 C.3        1 MOL1        -0.1305
      15    H10     18.924632   20.607082   23.199259 H          1 MOL1         0.0997
      16    H11     18.070956   21.114406   21.753702 H          1 MOL1         0.0997
      17    C5      17.752606   19.032476   22.258659 C.3        1 MOL1        -0.2320
      18    H12     16.822402   19.257801   22.796108 H          1 MOL1         0.1008
      19    H13     17.482979   18.679779   21.254726 H          1 MOL1         0.1008
      20    H14     18.249589   18.211348   22.790066 H          1 MOL1         0.1008
@<TRIPOS>BOND
    1     1     2    1
    2     1     3    1
    3     1     4    1
    4     1     5    1
    5     5     6    1
    6     5     7    1
    7     5     8    1
    8     8     9    1
    9     8    10    1
   10     8    11    1
   11    11    12    1
   12    11    13    1
   13    11    14    1
   14    14    15    1
   15    14    16    1
   16    14    17    1
   17    17    18    1
   18    17    19    1
   19    17    20    1
@<TRIPOS>SUBSTRUCTURE
       1 MOL1            1 RESIDUE      1      MOL     
@<SCITEGIC>MOL_PROPERTY
VConf Rank
SciTegic.value.IntegerValue
198

@<SCITEGIC>MOL_PROPERTY
Conf_Id
SciTegic.value.IntegerValue
64

@<SCITEGIC>MOL_PROPERTY
Delta U+W
SciTegic.value.DoubleValue
0.707

@<SCITEGIC>MOL_PROPERTY
U+W
SciTegic.value.DoubleValue
-11.070

@<SCITEGIC>MOL_PROPERTY
Grad RMS
SciTegic.value.DoubleValue
0.000000

@<SCITEGIC>MOL_PROPERTY
U
SciTegic.value.DoubleValue
47.077

@<SCITEGIC>MOL_PROPERTY
W
SciTegic.value.DoubleValue
-58.148

@<SCITEGIC>MOL_PROPERTY
W(PB)
SciTegic.value.DoubleValue
-60.054

@<SCITEGIC>MOL_PROPERTY
W(SA)
SciTegic.value.DoubleValue
1.906

@<SCITEGIC>MOL_PROPERTY
Valence
SciTegic.value.DoubleValue
2.039

@<SCITEGIC>MOL_PROPERTY
Coulomb
SciTegic.value.DoubleValue
44.655

@<SCITEGIC>MOL_PROPERTY
VdW
SciTegic.value.DoubleValue
0.383

@<SCITEGIC>MOL_PROPERTY
VdW6
SciTegic.value.DoubleValue
-4.912

@<SCITEGIC>MOL_PROPERTY
VdW12
SciTegic.value.DoubleValue
5.295

@<SCITEGIC>MOL_PROPERTY
Bond
SciTegic.value.DoubleValue
0.159

@<SCITEGIC>MOL_PROPERTY
Angle
SciTegic.value.DoubleValue
0.856

@<SCITEGIC>MOL_PROPERTY
Pdih
SciTegic.value.DoubleValue
1.024

@<SCITEGIC>MOL_PROPERTY
Idih
SciTegic.value.DoubleValue
0.000

@<SCITEGIC>MOL_PROPERTY
Tether
SciTegic.value.DoubleValue
0.000

@<TRIPOS>MOLECULE
guest-s11_confgen4.mol2 : confsearch ligand conformer 199
          20          19           1
SMALL
USER_CHARGES
 
@<TRIPOS>ATOM
       1    N1      17.802287   18.856787   23.811121 N.4        1 MOL1        -0.5919
       2    H1      17.725918   19.448257   24.644571 H          1 MOL1         0.3682
       3    H2      17.312895   19.341182   23.052122 H          1 MOL1         0.3682
       4    H3      17.274577   17.999428   24.005916 H          1 MOL1         0.3682
       5    C1      19.245756   18.561429   23.456880 C.3        1 MOL1         0.0252
       6    H4      19.249442   17.905373   22.582487 H          1 MOL1         0.0971
       7    H5      19.695624   18.021210   24.294233 H          1 MOL1         0.0971
       8    C2      20.067171   19.829624   23.157583 C.3        1 MOL1        -0.1369
       9    H6      19.611174   20.377477   22.323089 H          1 MOL1         0.0997
      10    H7      20.022430   20.499651   24.026388 H          1 MOL1         0.0997
      11    C3      21.551933   19.521285   22.840715 C.3        1 MOL1        -0.1329
      12    H8      22.024150   19.087039   23.732867 H          1 MOL1         0.0997
      13    H9      22.079102   20.466225   22.649816 H          1 MOL1         0.0997
      14    C4      21.776554   18.564425   21.641887 C.3        1 MOL1        -0.1305
      15    H10     22.856811   18.402343   21.520827 H          1 MOL1         0.0997
      16    H11     21.346681   17.576988   21.858573 H          1 MOL1         0.0997
      17    C5      21.201631   19.100960   20.311247 C.3        1 MOL1        -0.2320
      18    H12     21.600636   20.097556   20.081972 H          1 MOL1         0.1008
      19    H13     21.467443   18.434027   19.480916 H          1 MOL1         0.1008
      20    H14     20.107003   19.167366   20.343110 H          1 MOL1         0.1008
@<TRIPOS>BOND
    1     1     2    1
    2     1     3    1
    3     1     4    1
    4     1     5    1
    5     5     6    1
    6     5     7    1
    7     5     8    1
    8     8     9    1
    9     8    10    1
   10     8    11    1
   11    11    12    1
   12    11    13    1
   13    11    14    1
   14    14    15    1
   15    14    16    1
   16    14    17    1
   17    17    18    1
   18    17    19    1
   19    17    20    1
@<TRIPOS>SUBSTRUCTURE
       1 MOL1            1 RESIDUE      1      MOL     
@<SCITEGIC>MOL_PROPERTY
VConf Rank
SciTegic.value.IntegerValue
199

@<SCITEGIC>MOL_PROPERTY
Conf_Id
SciTegic.value.IntegerValue
22

@<SCITEGIC>MOL_PROPERTY
Delta U+W
SciTegic.value.DoubleValue
0.731

@<SCITEGIC>MOL_PROPERTY
U+W
SciTegic.value.DoubleValue
-11.047

@<SCITEGIC>MOL_PROPERTY
Grad RMS
SciTegic.value.DoubleValue
0.000000

@<SCITEGIC>MOL_PROPERTY
U
SciTegic.value.DoubleValue
47.078

@<SCITEGIC>MOL_PROPERTY
W
SciTegic.value.DoubleValue
-58.125

@<SCITEGIC>MOL_PROPERTY
W(PB)
SciTegic.value.DoubleValue
-60.031

@<SCITEGIC>MOL_PROPERTY
W(SA)
SciTegic.value.DoubleValue
1.906

@<SCITEGIC>MOL_PROPERTY
Valence
SciTegic.value.DoubleValue
2.039

@<SCITEGIC>MOL_PROPERTY
Coulomb
SciTegic.value.DoubleValue
44.655

@<SCITEGIC>MOL_PROPERTY
VdW
SciTegic.value.DoubleValue
0.383

@<SCITEGIC>MOL_PROPERTY
VdW6
SciTegic.value.DoubleValue
-4.913

@<SCITEGIC>MOL_PROPERTY
VdW12
SciTegic.value.DoubleValue
5.296

@<SCITEGIC>MOL_PROPERTY
Bond
SciTegic.value.DoubleValue
0.159

@<SCITEGIC>MOL_PROPERTY
Angle
SciTegic.value.DoubleValue
0.856

@<SCITEGIC>MOL_PROPERTY
Pdih
SciTegic.value.DoubleValue
1.024

@<SCITEGIC>MOL_PROPERTY
Idih
SciTegic.value.DoubleValue
0.000

@<SCITEGIC>MOL_PROPERTY
Tether
SciTegic.value.DoubleValue
0.000

@<TRIPOS>MOLECULE
guest-s11_confgen4.mol2 : confsearch ligand conformer 200
          20          19           1
SMALL
USER_CHARGES
 
@<TRIPOS>ATOM
       1    N1      22.868379   19.460825   22.032813 N.4        1 MOL1        -0.5919
       2    H1      22.973848   20.476975   21.951261 H          1 MOL1         0.3682
       3    H2      23.440907   19.161601   22.828417 H          1 MOL1         0.3682
       4    H3      23.289103   19.049787   21.192854 H          1 MOL1         0.3682
       5    C1      21.417713   19.053034   22.193705 C.3        1 MOL1         0.0252
       6    H4      21.376861   17.961739   22.246636 H          1 MOL1         0.0971
       7    H5      20.880813   19.378210   21.299688 H          1 MOL1         0.0971
       8    C2      20.754971   19.658781   23.443711 C.3        1 MOL1        -0.1369
       9    H6      21.373072   19.423125   24.320262 H          1 MOL1         0.0997
      10    H7      20.744008   20.753421   23.357521 H          1 MOL1         0.0997
      11    C3      19.316958   19.143118   23.704711 C.3        1 MOL1        -0.1329
      12    H8      18.982941   19.567955   24.661527 H          1 MOL1         0.0997
      13    H9      19.325631   18.054107   23.850754 H          1 MOL1         0.0997
      14    C4      18.277664   19.529590   22.620415 C.3        1 MOL1        -0.1305
      15    H10     17.288660   19.588410   23.096351 H          1 MOL1         0.0997
      16    H11     18.486477   20.536925   22.233875 H          1 MOL1         0.0997
      17    C5      18.181466   18.517032   21.454950 C.3        1 MOL1        -0.2320
      18    H12     19.105610   18.467396   20.869826 H          1 MOL1         0.1008
      19    H13     17.959069   17.508479   21.826924 H          1 MOL1         0.1008
      20    H14     17.374457   18.802101   20.767596 H          1 MOL1         0.1008
@<TRIPOS>BOND
    1     1     2    1
    2     1     3    1
    3     1     4    1
    4     1     5    1
    5     5     6    1
    6     5     7    1
    7     5     8    1
    8     8     9    1
    9     8    10    1
   10     8    11    1
   11    11    12    1
   12    11    13    1
   13    11    14    1
   14    14    15    1
   15    14    16    1
   16    14    17    1
   17    17    18    1
   18    17    19    1
   19    17    20    1
@<TRIPOS>SUBSTRUCTURE
       1 MOL1            1 RESIDUE      1      MOL     
@<SCITEGIC>MOL_PROPERTY
VConf Rank
SciTegic.value.IntegerValue
200

@<SCITEGIC>MOL_PROPERTY
Conf_Id
SciTegic.value.IntegerValue
61

@<SCITEGIC>MOL_PROPERTY
Delta U+W
SciTegic.value.DoubleValue
2.669

@<SCITEGIC>MOL_PROPERTY
U+W
SciTegic.value.DoubleValue
-9.108

@<SCITEGIC>MOL_PROPERTY
Grad RMS
SciTegic.value.DoubleValue
0.000000

@<SCITEGIC>MOL_PROPERTY
U
SciTegic.value.DoubleValue
48.916

@<SCITEGIC>MOL_PROPERTY
W
SciTegic.value.DoubleValue
-58.025

@<SCITEGIC>MOL_PROPERTY
W(PB)
SciTegic.value.DoubleValue
-59.935

@<SCITEGIC>MOL_PROPERTY
W(SA)
SciTegic.value.DoubleValue
1.911

@<SCITEGIC>MOL_PROPERTY
Valence
SciTegic.value.DoubleValue
3.785

@<SCITEGIC>MOL_PROPERTY
Coulomb
SciTegic.value.DoubleValue
44.716

@<SCITEGIC>MOL_PROPERTY
VdW
SciTegic.value.DoubleValue
0.415

@<SCITEGIC>MOL_PROPERTY
VdW6
SciTegic.value.DoubleValue
-4.836

@<SCITEGIC>MOL_PROPERTY
VdW12
SciTegic.value.DoubleValue
5.251

@<SCITEGIC>MOL_PROPERTY
Bond
SciTegic.value.DoubleValue
0.175

@<SCITEGIC>MOL_PROPERTY
Angle
SciTegic.value.DoubleValue
1.195

@<SCITEGIC>MOL_PROPERTY
Pdih
SciTegic.value.DoubleValue
2.415

@<SCITEGIC>MOL_PROPERTY
Idih
SciTegic.value.DoubleValue
0.000

@<SCITEGIC>MOL_PROPERTY
Tether
SciTegic.value.DoubleValue
0.000

@<TRIPOS>MOLECULE
guest-s11_confgen4.mol2 : confsearch ligand conformer 201
          20          19           1
SMALL
USER_CHARGES
 
@<TRIPOS>ATOM
       1    N1      20.019171   18.640953   24.680567 N.4        1 MOL1        -0.5919
       2    H1      19.420805   18.302970   25.441729 H          1 MOL1         0.3682
       3    H2      20.880068   18.990390   25.113063 H          1 MOL1         0.3682
       4    H3      19.545076   19.444102   24.259604 H          1 MOL1         0.3682
       5    C1      20.302503   17.552308   23.663145 C.3        1 MOL1         0.0252
       6    H4      19.349988   17.178004   23.278504 H          1 MOL1         0.0971
       7    H5      20.794340   16.736172   24.199409 H          1 MOL1         0.0971
       8    C2      21.203074   17.995578   22.490985 C.3        1 MOL1        -0.1369
       9    H6      22.031155   18.612357   22.864724 H          1 MOL1         0.0997
      10    H7      21.666646   17.094735   22.067367 H          1 MOL1         0.0997
      11    C3      20.457226   18.728309   21.346177 C.3        1 MOL1        -0.1329
      12    H8      19.670237   18.074821   20.944843 H          1 MOL1         0.0997
      13    H9      21.168099   18.890239   20.524035 H          1 MOL1         0.0997
      14    C4      19.841929   20.088920   21.749239 C.3        1 MOL1        -0.1305
      15    H10     19.022242   19.934608   22.462087 H          1 MOL1         0.0997
      16    H11     20.599473   20.708190   22.249813 H          1 MOL1         0.0997
      17    C5      19.290738   20.848812   20.523770 C.3        1 MOL1        -0.2320
      18    H12     18.849370   21.806850   20.827756 H          1 MOL1         0.1008
      19    H13     20.087192   21.061036   19.798619 H          1 MOL1         0.1008
      20    H14     18.511963   20.265675   20.015115 H          1 MOL1         0.1008
@<TRIPOS>BOND
    1     1     2    1
    2     1     3    1
    3     1     4    1
    4     1     5    1
    5     5     6    1
    6     5     7    1
    7     5     8    1
    8     8     9    1
    9     8    10    1
   10     8    11    1
   11    11    12    1
   12    11    13    1
   13    11    14    1
   14    14    15    1
   15    14    16    1
   16    14    17    1
   17    17    18    1
   18    17    19    1
   19    17    20    1
@<TRIPOS>SUBSTRUCTURE
       1 MOL1            1 RESIDUE      1      MOL     
@<SCITEGIC>MOL_PROPERTY
VConf Rank
SciTegic.value.IntegerValue
201

@<SCITEGIC>MOL_PROPERTY
Conf_Id
SciTegic.value.IntegerValue
69

@<SCITEGIC>MOL_PROPERTY
Delta U+W
SciTegic.value.DoubleValue
2.811

@<SCITEGIC>MOL_PROPERTY
U+W
SciTegic.value.DoubleValue
-8.967

@<SCITEGIC>MOL_PROPERTY
Grad RMS
SciTegic.value.DoubleValue
0.000000

@<SCITEGIC>MOL_PROPERTY
U
SciTegic.value.DoubleValue
49.216

@<SCITEGIC>MOL_PROPERTY
W
SciTegic.value.DoubleValue
-58.183

@<SCITEGIC>MOL_PROPERTY
W(PB)
SciTegic.value.DoubleValue
-60.064

@<SCITEGIC>MOL_PROPERTY
W(SA)
SciTegic.value.DoubleValue
1.881

@<SCITEGIC>MOL_PROPERTY
Valence
SciTegic.value.DoubleValue
2.929

@<SCITEGIC>MOL_PROPERTY
Coulomb
SciTegic.value.DoubleValue
46.006

@<SCITEGIC>MOL_PROPERTY
VdW
SciTegic.value.DoubleValue
0.281

@<SCITEGIC>MOL_PROPERTY
VdW6
SciTegic.value.DoubleValue
-4.909

@<SCITEGIC>MOL_PROPERTY
VdW12
SciTegic.value.DoubleValue
5.190

@<SCITEGIC>MOL_PROPERTY
Bond
SciTegic.value.DoubleValue
0.156

@<SCITEGIC>MOL_PROPERTY
Angle
SciTegic.value.DoubleValue
0.974

@<SCITEGIC>MOL_PROPERTY
Pdih
SciTegic.value.DoubleValue
1.799

@<SCITEGIC>MOL_PROPERTY
Idih
SciTegic.value.DoubleValue
0.000

@<SCITEGIC>MOL_PROPERTY
Tether
SciTegic.value.DoubleValue
0.000

@<TRIPOS>MOLECULE
guest-s11_confgen4.mol2 : confsearch ligand conformer 202
          20          19           1
SMALL
USER_CHARGES
 
@<TRIPOS>ATOM
       1    N1      19.387541   17.719686   20.784786 N.4        1 MOL1        -0.5919
       2    H1      19.837995   18.608963   20.553903 H          1 MOL1         0.3682
       3    H2      20.096815   16.986592   20.685754 H          1 MOL1         0.3682
       4    H3      18.678297   17.545467   20.064881 H          1 MOL1         0.3682
       5    C1      18.783860   17.734084   22.176163 C.3        1 MOL1         0.0252
       6    H4      18.317612   16.757184   22.330560 H          1 MOL1         0.0971
       7    H5      17.996993   18.492519   22.207078 H          1 MOL1         0.0971
       8    C2      19.801067   17.987934   23.308562 C.3        1 MOL1        -0.1369
       9    H6      19.374494   17.584754   24.236653 H          1 MOL1         0.0997
      10    H7      20.719201   17.414025   23.125603 H          1 MOL1         0.0997
      11    C3      20.136804   19.482058   23.550730 C.3        1 MOL1        -0.1329
      12    H8      20.772081   19.548872   24.444843 H          1 MOL1         0.0997
      13    H9      19.214989   20.030346   23.789696 H          1 MOL1         0.0997
      14    C4      20.859016   20.176364   22.372315 C.3        1 MOL1        -0.1305
      15    H10     21.723493   19.575232   22.057256 H          1 MOL1         0.0997
      16    H11     20.183732   20.254951   21.511114 H          1 MOL1         0.0997
      17    C5      21.335697   21.594196   22.753818 C.3        1 MOL1        -0.2320
      18    H12     22.047180   21.561089   23.589233 H          1 MOL1         0.1008
      19    H13     21.837092   22.076429   21.904638 H          1 MOL1         0.1008
      20    H14     20.490114   22.228637   23.050033 H          1 MOL1         0.1008
@<TRIPOS>BOND
    1     1     2    1
    2     1     3    1
    3     1     4    1
    4     1     5    1
    5     5     6    1
    6     5     7    1
    7     5     8    1
    8     8     9    1
    9     8    10    1
   10     8    11    1
   11    11    12    1
   12    11    13    1
   13    11    14    1
   14    14    15    1
   15    14    16    1
   16    14    17    1
   17    17    18    1
   18    17    19    1
   19    17    20    1
@<TRIPOS>SUBSTRUCTURE
       1 MOL1            1 RESIDUE      1      MOL     
@<SCITEGIC>MOL_PROPERTY
VConf Rank
SciTegic.value.IntegerValue
202

@<SCITEGIC>MOL_PROPERTY
Conf_Id
SciTegic.value.IntegerValue
26

@<SCITEGIC>MOL_PROPERTY
Delta U+W
SciTegic.value.DoubleValue
2.809

@<SCITEGIC>MOL_PROPERTY
U+W
SciTegic.value.DoubleValue
-8.969

@<SCITEGIC>MOL_PROPERTY
Grad RMS
SciTegic.value.DoubleValue
0.000000

@<SCITEGIC>MOL_PROPERTY
U
SciTegic.value.DoubleValue
49.216

@<SCITEGIC>MOL_PROPERTY
W
SciTegic.value.DoubleValue
-58.185

@<SCITEGIC>MOL_PROPERTY
W(PB)
SciTegic.value.DoubleValue
-60.088

@<SCITEGIC>MOL_PROPERTY
W(SA)
SciTegic.value.DoubleValue
1.903

@<SCITEGIC>MOL_PROPERTY
Valence
SciTegic.value.DoubleValue
2.929

@<SCITEGIC>MOL_PROPERTY
Coulomb
SciTegic.value.DoubleValue
46.006

@<SCITEGIC>MOL_PROPERTY
VdW
SciTegic.value.DoubleValue
0.281

@<SCITEGIC>MOL_PROPERTY
VdW6
SciTegic.value.DoubleValue
-4.909

@<SCITEGIC>MOL_PROPERTY
VdW12
SciTegic.value.DoubleValue
5.190

@<SCITEGIC>MOL_PROPERTY
Bond
SciTegic.value.DoubleValue
0.156

@<SCITEGIC>MOL_PROPERTY
Angle
SciTegic.value.DoubleValue
0.974

@<SCITEGIC>MOL_PROPERTY
Pdih
SciTegic.value.DoubleValue
1.799

@<SCITEGIC>MOL_PROPERTY
Idih
SciTegic.value.DoubleValue
0.000

@<SCITEGIC>MOL_PROPERTY
Tether
SciTegic.value.DoubleValue
0.000

@<TRIPOS>MOLECULE
guest-s11_confgen4.mol2 : confsearch ligand conformer 203
          20          19           1
SMALL
USER_CHARGES
 
@<TRIPOS>ATOM
       1    N1      21.059310   16.963896   22.792363 N.4        1 MOL1        -0.5919
       2    H1      21.216749   17.213726   21.811681 H          1 MOL1         0.3682
       3    H2      21.978672   16.904308   23.240984 H          1 MOL1         0.3682
       4    H3      20.660871   16.019191   22.801772 H          1 MOL1         0.3682
       5    C1      20.156269   17.963680   23.488027 C.3        1 MOL1         0.0252
       6    H4      20.007357   17.619558   24.515117 H          1 MOL1         0.0971
       7    H5      19.186563   17.954376   22.983532 H          1 MOL1         0.0971
       8    C2      20.719132   19.399353   23.505900 C.3        1 MOL1        -0.1369
       9    H6      20.044089   20.036736   24.091212 H          1 MOL1         0.0997
      10    H7      21.676172   19.403319   24.044135 H          1 MOL1         0.0997
      11    C3      20.923754   20.013995   22.096170 C.3        1 MOL1        -0.1329
      12    H8      21.720845   19.468065   21.573853 H          1 MOL1         0.0997
      13    H9      21.293448   21.042461   22.209236 H          1 MOL1         0.0997
      14    C4      19.656821   20.028709   21.203031 C.3        1 MOL1        -0.1305
      15    H10     19.920206   20.461976   20.227962 H          1 MOL1         0.0997
      16    H11     19.324760   19.002197   20.996863 H          1 MOL1         0.0997
      17    C5      18.489086   20.839994   21.808881 C.3        1 MOL1        -0.2320
      18    H12     18.800006   21.867070   22.039979 H          1 MOL1         0.1008
      19    H13     17.651055   20.894210   21.102022 H          1 MOL1         0.1008
      20    H14     18.113707   20.378573   22.730718 H          1 MOL1         0.1008
@<TRIPOS>BOND
    1     1     2    1
    2     1     3    1
    3     1     4    1
    4     1     5    1
    5     5     6    1
    6     5     7    1
    7     5     8    1
    8     8     9    1
    9     8    10    1
   10     8    11    1
   11    11    12    1
   12    11    13    1
   13    11    14    1
   14    14    15    1
   15    14    16    1
   16    14    17    1
   17    17    18    1
   18    17    19    1
   19    17    20    1
@<TRIPOS>SUBSTRUCTURE
       1 MOL1            1 RESIDUE      1      MOL     
@<SCITEGIC>MOL_PROPERTY
VConf Rank
SciTegic.value.IntegerValue
203

@<SCITEGIC>MOL_PROPERTY
Conf_Id
SciTegic.value.IntegerValue
2

@<SCITEGIC>MOL_PROPERTY
Delta U+W
SciTegic.value.DoubleValue
0.994

@<SCITEGIC>MOL_PROPERTY
U+W
SciTegic.value.DoubleValue
-10.784

@<SCITEGIC>MOL_PROPERTY
Grad RMS
SciTegic.value.DoubleValue
0.000000

@<SCITEGIC>MOL_PROPERTY
U
SciTegic.value.DoubleValue
47.562

@<SCITEGIC>MOL_PROPERTY
W
SciTegic.value.DoubleValue
-58.346

@<SCITEGIC>MOL_PROPERTY
W(PB)
SciTegic.value.DoubleValue
-60.221

@<SCITEGIC>MOL_PROPERTY
W(SA)
SciTegic.value.DoubleValue
1.875

@<SCITEGIC>MOL_PROPERTY
Valence
SciTegic.value.DoubleValue
2.149

@<SCITEGIC>MOL_PROPERTY
Coulomb
SciTegic.value.DoubleValue
45.034

@<SCITEGIC>MOL_PROPERTY
VdW
SciTegic.value.DoubleValue
0.378

@<SCITEGIC>MOL_PROPERTY
VdW6
SciTegic.value.DoubleValue
-5.599

@<SCITEGIC>MOL_PROPERTY
VdW12
SciTegic.value.DoubleValue
5.977

@<SCITEGIC>MOL_PROPERTY
Bond
SciTegic.value.DoubleValue
0.185

@<SCITEGIC>MOL_PROPERTY
Angle
SciTegic.value.DoubleValue
0.935

@<SCITEGIC>MOL_PROPERTY
Pdih
SciTegic.value.DoubleValue
1.028

@<SCITEGIC>MOL_PROPERTY
Idih
SciTegic.value.DoubleValue
0.000

@<SCITEGIC>MOL_PROPERTY
Tether
SciTegic.value.DoubleValue
0.000

@<TRIPOS>MOLECULE
guest-s11_confgen4.mol2 : confsearch ligand conformer 204
          20          19           1
SMALL
USER_CHARGES
 
@<TRIPOS>ATOM
       1    N1      18.275355   17.729954   21.809907 N.4        1 MOL1        -0.5919
       2    H1      17.475917   17.703419   22.450402 H          1 MOL1         0.3682
       3    H2      18.214167   18.607706   21.285745 H          1 MOL1         0.3682
       4    H3      18.143781   16.967883   21.136672 H          1 MOL1         0.3682
       5    C1      19.593879   17.608349   22.548625 C.3        1 MOL1         0.0252
       6    H4      20.399123   17.610038   21.809360 H          1 MOL1         0.0971
       7    H5      19.602635   16.640476   23.057205 H          1 MOL1         0.0971
       8    C2      19.832351   18.730273   23.579500 C.3        1 MOL1        -0.1369
       9    H6      19.037122   18.698052   24.335946 H          1 MOL1         0.0997
      10    H7      20.766022   18.523318   24.117979 H          1 MOL1         0.0997
      11    C3      19.891805   20.152117   22.961587 C.3        1 MOL1        -0.1329
      12    H8      20.097034   20.876850   23.761488 H          1 MOL1         0.0997
      13    H9      18.902170   20.418500   22.566782 H          1 MOL1         0.0997
      14    C4      20.944928   20.329328   21.837948 C.3        1 MOL1        -0.1305
      15    H10     20.703257   19.681541   20.984447 H          1 MOL1         0.0997
      16    H11     20.885194   21.359858   21.460739 H          1 MOL1         0.0997
      17    C5      22.392177   20.053616   22.305166 C.3        1 MOL1        -0.2320
      18    H12     22.531498   19.002123   22.585441 H          1 MOL1         0.1008
      19    H13     23.105124   20.278126   21.501307 H          1 MOL1         0.1008
      20    H14     22.653671   20.677748   23.169481 H          1 MOL1         0.1008
@<TRIPOS>BOND
    1     1     2    1
    2     1     3    1
    3     1     4    1
    4     1     5    1
    5     5     6    1
    6     5     7    1
    7     5     8    1
    8     8     9    1
    9     8    10    1
   10     8    11    1
   11    11    12    1
   12    11    13    1
   13    11    14    1
   14    14    15    1
   15    14    16    1
   16    14    17    1
   17    17    18    1
   18    17    19    1
   19    17    20    1
@<TRIPOS>SUBSTRUCTURE
       1 MOL1            1 RESIDUE      1      MOL     
@<SCITEGIC>MOL_PROPERTY
VConf Rank
SciTegic.value.IntegerValue
204

@<SCITEGIC>MOL_PROPERTY
Conf_Id
SciTegic.value.IntegerValue
1

@<SCITEGIC>MOL_PROPERTY
Delta U+W
SciTegic.value.DoubleValue
1.032

@<SCITEGIC>MOL_PROPERTY
U+W
SciTegic.value.DoubleValue
-10.746

@<SCITEGIC>MOL_PROPERTY
Grad RMS
SciTegic.value.DoubleValue
0.000000

@<SCITEGIC>MOL_PROPERTY
U
SciTegic.value.DoubleValue
47.562

@<SCITEGIC>MOL_PROPERTY
W
SciTegic.value.DoubleValue
-58.308

@<SCITEGIC>MOL_PROPERTY
W(PB)
SciTegic.value.DoubleValue
-60.184

@<SCITEGIC>MOL_PROPERTY
W(SA)
SciTegic.value.DoubleValue
1.877

@<SCITEGIC>MOL_PROPERTY
Valence
SciTegic.value.DoubleValue
2.149

@<SCITEGIC>MOL_PROPERTY
Coulomb
SciTegic.value.DoubleValue
45.035

@<SCITEGIC>MOL_PROPERTY
VdW
SciTegic.value.DoubleValue
0.378

@<SCITEGIC>MOL_PROPERTY
VdW6
SciTegic.value.DoubleValue
-5.599

@<SCITEGIC>MOL_PROPERTY
VdW12
SciTegic.value.DoubleValue
5.978

@<SCITEGIC>MOL_PROPERTY
Bond
SciTegic.value.DoubleValue
0.185

@<SCITEGIC>MOL_PROPERTY
Angle
SciTegic.value.DoubleValue
0.935

@<SCITEGIC>MOL_PROPERTY
Pdih
SciTegic.value.DoubleValue
1.028

@<SCITEGIC>MOL_PROPERTY
Idih
SciTegic.value.DoubleValue
0.000

@<SCITEGIC>MOL_PROPERTY
Tether
SciTegic.value.DoubleValue
0.000

@<TRIPOS>MOLECULE
guest-s11_confgen4.mol2 : confsearch ligand conformer 205
          20          19           1
SMALL
USER_CHARGES
 
@<TRIPOS>ATOM
       1    N1      19.421260   16.961368   22.110954 N.4        1 MOL1        -0.5919
       2    H1      19.629060   16.228668   22.796563 H          1 MOL1         0.3682
       3    H2      18.659188   17.527732   22.494570 H          1 MOL1         0.3682
       4    H3      19.054815   16.492760   21.275807 H          1 MOL1         0.3682
       5    C1      20.643574   17.801352   21.794516 C.3        1 MOL1         0.0252
       6    H4      20.359974   18.536673   21.039934 H          1 MOL1         0.0971
       7    H5      21.392300   17.138185   21.352767 H          1 MOL1         0.0971
       8    C2      21.253684   18.503430   23.026412 C.3        1 MOL1        -0.1369
       9    H6      21.515288   17.732135   23.762950 H          1 MOL1         0.0997
      10    H7      22.200954   18.979897   22.741321 H          1 MOL1         0.0997
      11    C3      20.327550   19.549868   23.702848 C.3        1 MOL1        -0.1329
      12    H8      20.654385   19.664050   24.745712 H          1 MOL1         0.0997
      13    H9      19.297059   19.176188   23.759189 H          1 MOL1         0.0997
      14    C4      20.345466   20.958564   23.055324 C.3        1 MOL1        -0.1305
      15    H10     19.729760   21.628641   23.671645 H          1 MOL1         0.0997
      16    H11     21.364511   21.368741   23.088252 H          1 MOL1         0.0997
      17    C5      19.819326   21.006088   21.603825 C.3        1 MOL1        -0.2320
      18    H12     18.849301   20.500351   21.514160 H          1 MOL1         0.1008
      19    H13     19.685907   22.046406   21.279992 H          1 MOL1         0.1008
      20    H14     20.525927   20.539663   20.907249 H          1 MOL1         0.1008
@<TRIPOS>BOND
    1     1     2    1
    2     1     3    1
    3     1     4    1
    4     1     5    1
    5     5     6    1
    6     5     7    1
    7     5     8    1
    8     8     9    1
    9     8    10    1
   10     8    11    1
   11    11    12    1
   12    11    13    1
   13    11    14    1
   14    14    15    1
   15    14    16    1
   16    14    17    1
   17    17    18    1
   18    17    19    1
   19    17    20    1
@<TRIPOS>SUBSTRUCTURE
       1 MOL1            1 RESIDUE      1      MOL     
@<SCITEGIC>MOL_PROPERTY
VConf Rank
SciTegic.value.IntegerValue
205

@<SCITEGIC>MOL_PROPERTY
Conf_Id
SciTegic.value.IntegerValue
80

@<SCITEGIC>MOL_PROPERTY
Delta U+W
SciTegic.value.DoubleValue
2.920

@<SCITEGIC>MOL_PROPERTY
U+W
SciTegic.value.DoubleValue
-8.857

@<SCITEGIC>MOL_PROPERTY
Grad RMS
SciTegic.value.DoubleValue
0.000000

@<SCITEGIC>MOL_PROPERTY
U
SciTegic.value.DoubleValue
49.434

@<SCITEGIC>MOL_PROPERTY
W
SciTegic.value.DoubleValue
-58.292

@<SCITEGIC>MOL_PROPERTY
W(PB)
SciTegic.value.DoubleValue
-60.170

@<SCITEGIC>MOL_PROPERTY
W(SA)
SciTegic.value.DoubleValue
1.879

@<SCITEGIC>MOL_PROPERTY
Valence
SciTegic.value.DoubleValue
3.798

@<SCITEGIC>MOL_PROPERTY
Coulomb
SciTegic.value.DoubleValue
45.253

@<SCITEGIC>MOL_PROPERTY
VdW
SciTegic.value.DoubleValue
0.384

@<SCITEGIC>MOL_PROPERTY
VdW6
SciTegic.value.DoubleValue
-5.595

@<SCITEGIC>MOL_PROPERTY
VdW12
SciTegic.value.DoubleValue
5.979

@<SCITEGIC>MOL_PROPERTY
Bond
SciTegic.value.DoubleValue
0.198

@<SCITEGIC>MOL_PROPERTY
Angle
SciTegic.value.DoubleValue
1.368

@<SCITEGIC>MOL_PROPERTY
Pdih
SciTegic.value.DoubleValue
2.231

@<SCITEGIC>MOL_PROPERTY
Idih
SciTegic.value.DoubleValue
0.000

@<SCITEGIC>MOL_PROPERTY
Tether
SciTegic.value.DoubleValue
0.000

@<TRIPOS>MOLECULE
guest-s11_confgen4.mol2 : confsearch ligand conformer 206
          20          19           1
SMALL
USER_CHARGES
 
@<TRIPOS>ATOM
       1    N1      19.709646   21.449791   22.878208 N.4        1 MOL1        -0.5919
       2    H1      18.766229   21.703573   23.187480 H          1 MOL1         0.3682
       3    H2      20.301761   22.274800   23.020007 H          1 MOL1         0.3682
       4    H3      19.663288   21.285061   21.868554 H          1 MOL1         0.3682
       5    C1      20.241495   20.240420   23.622733 C.3        1 MOL1         0.0252
       6    H4      20.301397   20.506848   24.681482 H          1 MOL1         0.0971
       7    H5      21.254877   20.046166   23.267995 H          1 MOL1         0.0971
       8    C2      19.366621   18.978179   23.467582 C.3        1 MOL1        -0.1369
       9    H6      19.742366   18.191105   24.134627 H          1 MOL1         0.0997
      10    H7      18.356537   19.218044   23.825372 H          1 MOL1         0.0997
      11    C3      19.268704   18.429538   22.018538 C.3        1 MOL1        -0.1329
      12    H8      19.149607   19.251076   21.300476 H          1 MOL1         0.0997
      13    H9      18.344482   17.839911   21.943857 H          1 MOL1         0.0997
      14    C4      20.439887   17.511365   21.583415 C.3        1 MOL1        -0.1305
      15    H10     20.494356   16.639094   22.249717 H          1 MOL1         0.0997
      16    H11     20.213249   17.114604   20.583834 H          1 MOL1         0.0997
      17    C5      21.818272   18.206728   21.533891 C.3        1 MOL1        -0.2320
      18    H12     22.194710   18.419788   22.541340 H          1 MOL1         0.1008
      19    H13     22.555858   17.557787   21.044225 H          1 MOL1         0.1008
      20    H14     21.771186   19.146369   20.968545 H          1 MOL1         0.1008
@<TRIPOS>BOND
    1     1     2    1
    2     1     3    1
    3     1     4    1
    4     1     5    1
    5     5     6    1
    6     5     7    1
    7     5     8    1
    8     8     9    1
    9     8    10    1
   10     8    11    1
   11    11    12    1
   12    11    13    1
   13    11    14    1
   14    14    15    1
   15    14    16    1
   16    14    17    1
   17    17    18    1
   18    17    19    1
   19    17    20    1
@<TRIPOS>SUBSTRUCTURE
       1 MOL1            1 RESIDUE      1      MOL     
@<SCITEGIC>MOL_PROPERTY
VConf Rank
SciTegic.value.IntegerValue
206

@<SCITEGIC>MOL_PROPERTY
Conf_Id
SciTegic.value.IntegerValue
65

@<SCITEGIC>MOL_PROPERTY
Delta U+W
SciTegic.value.DoubleValue
2.949

@<SCITEGIC>MOL_PROPERTY
U+W
SciTegic.value.DoubleValue
-8.829

@<SCITEGIC>MOL_PROPERTY
Grad RMS
SciTegic.value.DoubleValue
0.000000

@<SCITEGIC>MOL_PROPERTY
U
SciTegic.value.DoubleValue
49.435

@<SCITEGIC>MOL_PROPERTY
W
SciTegic.value.DoubleValue
-58.263

@<SCITEGIC>MOL_PROPERTY
W(PB)
SciTegic.value.DoubleValue
-60.125

@<SCITEGIC>MOL_PROPERTY
W(SA)
SciTegic.value.DoubleValue
1.862

@<SCITEGIC>MOL_PROPERTY
Valence
SciTegic.value.DoubleValue
3.797

@<SCITEGIC>MOL_PROPERTY
Coulomb
SciTegic.value.DoubleValue
45.253

@<SCITEGIC>MOL_PROPERTY
VdW
SciTegic.value.DoubleValue
0.384

@<SCITEGIC>MOL_PROPERTY
VdW6
SciTegic.value.DoubleValue
-5.596

@<SCITEGIC>MOL_PROPERTY
VdW12
SciTegic.value.DoubleValue
5.980

@<SCITEGIC>MOL_PROPERTY
Bond
SciTegic.value.DoubleValue
0.198

@<SCITEGIC>MOL_PROPERTY
Angle
SciTegic.value.DoubleValue
1.369

@<SCITEGIC>MOL_PROPERTY
Pdih
SciTegic.value.DoubleValue
2.230

@<SCITEGIC>MOL_PROPERTY
Idih
SciTegic.value.DoubleValue
0.000

@<SCITEGIC>MOL_PROPERTY
Tether
SciTegic.value.DoubleValue
0.000

@<TRIPOS>MOLECULE
guest-s11_confgen4.mol2 : confsearch ligand conformer 207
          20          19           1
SMALL
USER_CHARGES
 
@<TRIPOS>ATOM
       1    N1      18.816748   17.886231   21.817362 N.4        1 MOL1        -0.5919
       2    H1      17.854537   17.599256   22.025878 H          1 MOL1         0.3682
       3    H2      18.784230   18.861509   21.505113 H          1 MOL1         0.3682
       4    H3      19.130342   17.321494   21.021663 H          1 MOL1         0.3682
       5    C1      19.727309   17.720213   23.018557 C.3        1 MOL1         0.0252
       6    H4      19.710469   16.660700   23.288126 H          1 MOL1         0.0971
       7    H5      19.312345   18.289464   23.854595 H          1 MOL1         0.0971
       8    C2      21.185833   18.151635   22.763619 C.3        1 MOL1        -0.1369
       9    H6      21.820475   17.628146   23.490943 H          1 MOL1         0.0997
      10    H7      21.510720   17.798629   21.775873 H          1 MOL1         0.0997
      11    C3      21.459798   19.673069   22.905182 C.3        1 MOL1        -0.1329
      12    H8      22.537000   19.828063   22.753071 H          1 MOL1         0.0997
      13    H9      21.260255   19.995106   23.936658 H          1 MOL1         0.0997
      14    C4      20.698819   20.582855   21.907324 C.3        1 MOL1        -0.1305
      15    H10     21.351253   21.423913   21.633078 H          1 MOL1         0.0997
      16    H11     20.501546   20.044994   20.970280 H          1 MOL1         0.0997
      17    C5      19.393105   21.169751   22.494249 C.3        1 MOL1        -0.2320
      18    H12     18.711793   20.394114   22.860032 H          1 MOL1         0.1008
      19    H13     19.614770   21.836676   23.337692 H          1 MOL1         0.1008
      20    H14     18.860080   21.760401   21.737811 H          1 MOL1         0.1008
@<TRIPOS>BOND
    1     1     2    1
    2     1     3    1
    3     1     4    1
    4     1     5    1
    5     5     6    1
    6     5     7    1
    7     5     8    1
    8     8     9    1
    9     8    10    1
   10     8    11    1
   11    11    12    1
   12    11    13    1
   13    11    14    1
   14    14    15    1
   15    14    16    1
   16    14    17    1
   17    17    18    1
   18    17    19    1
   19    17    20    1
@<TRIPOS>SUBSTRUCTURE
       1 MOL1            1 RESIDUE      1      MOL     
@<SCITEGIC>MOL_PROPERTY
VConf Rank
SciTegic.value.IntegerValue
207

@<SCITEGIC>MOL_PROPERTY
Conf_Id
SciTegic.value.IntegerValue
77

@<SCITEGIC>MOL_PROPERTY
Delta U+W
SciTegic.value.DoubleValue
5.366

@<SCITEGIC>MOL_PROPERTY
U+W
SciTegic.value.DoubleValue
-6.412

@<SCITEGIC>MOL_PROPERTY
Grad RMS
SciTegic.value.DoubleValue
0.000000

@<SCITEGIC>MOL_PROPERTY
U
SciTegic.value.DoubleValue
51.542

@<SCITEGIC>MOL_PROPERTY
W
SciTegic.value.DoubleValue
-57.954

@<SCITEGIC>MOL_PROPERTY
W(PB)
SciTegic.value.DoubleValue
-59.811

@<SCITEGIC>MOL_PROPERTY
W(SA)
SciTegic.value.DoubleValue
1.857

@<SCITEGIC>MOL_PROPERTY
Valence
SciTegic.value.DoubleValue
5.347

@<SCITEGIC>MOL_PROPERTY
Coulomb
SciTegic.value.DoubleValue
45.870

@<SCITEGIC>MOL_PROPERTY
VdW
SciTegic.value.DoubleValue
0.325

@<SCITEGIC>MOL_PROPERTY
VdW6
SciTegic.value.DoubleValue
-6.161

@<SCITEGIC>MOL_PROPERTY
VdW12
SciTegic.value.DoubleValue
6.486

@<SCITEGIC>MOL_PROPERTY
Bond
SciTegic.value.DoubleValue
0.201

@<SCITEGIC>MOL_PROPERTY
Angle
SciTegic.value.DoubleValue
1.484

@<SCITEGIC>MOL_PROPERTY
Pdih
SciTegic.value.DoubleValue
3.662

@<SCITEGIC>MOL_PROPERTY
Idih
SciTegic.value.DoubleValue
0.000

@<SCITEGIC>MOL_PROPERTY
Tether
SciTegic.value.DoubleValue
0.000

@<TRIPOS>MOLECULE
guest-s11_confgen4.mol2 : confsearch ligand conformer 208
          20          19           1
SMALL
USER_CHARGES
 
@<TRIPOS>ATOM
       1    N1      21.359494   19.574116   20.949780 N.4        1 MOL1        -0.5919
       2    H1      22.366149   19.473615   21.113951 H          1 MOL1         0.3682
       3    H2      20.946310   18.638303   21.006858 H          1 MOL1         0.3682
       4    H3      21.245974   19.900567   19.984261 H          1 MOL1         0.3682
       5    C1      20.719316   20.522907   21.944531 C.3        1 MOL1         0.0252
       6    H4      19.664345   20.644160   21.684656 H          1 MOL1         0.0971
       7    H5      21.211735   21.491716   21.824307 H          1 MOL1         0.0971
       8    C2      20.848510   20.071437   23.413508 C.3        1 MOL1        -0.1369
       9    H6      21.860172   19.685480   23.596231 H          1 MOL1         0.0997
      10    H7      20.750858   20.963465   24.046408 H          1 MOL1         0.0997
      11    C3      19.788660   19.039243   23.883779 C.3        1 MOL1        -0.1329
      12    H8      18.784162   19.480877   23.825388 H          1 MOL1         0.0997
      13    H9      19.964636   18.851807   24.952155 H          1 MOL1         0.0997
      14    C4      19.813778   17.675660   23.147213 C.3        1 MOL1        -0.1305
      15    H10     20.829096   17.446903   22.796412 H          1 MOL1         0.0997
      16    H11     19.565263   16.883945   23.868107 H          1 MOL1         0.0997
      17    C5      18.795052   17.593583   21.985628 C.3        1 MOL1        -0.2320
      18    H12     18.885647   16.634860   21.458539 H          1 MOL1         0.1008
      19    H13     17.768104   17.664551   22.367287 H          1 MOL1         0.1008
      20    H14     18.928615   18.396673   21.252960 H          1 MOL1         0.1008
@<TRIPOS>BOND
    1     1     2    1
    2     1     3    1
    3     1     4    1
    4     1     5    1
    5     5     6    1
    6     5     7    1
    7     5     8    1
    8     8     9    1
    9     8    10    1
   10     8    11    1
   11    11    12    1
   12    11    13    1
   13    11    14    1
   14    14    15    1
   15    14    16    1
   16    14    17    1
   17    17    18    1
   18    17    19    1
   19    17    20    1
@<TRIPOS>SUBSTRUCTURE
       1 MOL1            1 RESIDUE      1      MOL     
@<SCITEGIC>MOL_PROPERTY
VConf Rank
SciTegic.value.IntegerValue
208

@<SCITEGIC>MOL_PROPERTY
Conf_Id
SciTegic.value.IntegerValue
67

@<SCITEGIC>MOL_PROPERTY
Delta U+W
SciTegic.value.DoubleValue
5.353

@<SCITEGIC>MOL_PROPERTY
U+W
SciTegic.value.DoubleValue
-6.425

@<SCITEGIC>MOL_PROPERTY
Grad RMS
SciTegic.value.DoubleValue
0.000000

@<SCITEGIC>MOL_PROPERTY
U
SciTegic.value.DoubleValue
51.541

@<SCITEGIC>MOL_PROPERTY
W
SciTegic.value.DoubleValue
-57.966

@<SCITEGIC>MOL_PROPERTY
W(PB)
SciTegic.value.DoubleValue
-59.821

@<SCITEGIC>MOL_PROPERTY
W(SA)
SciTegic.value.DoubleValue
1.855

@<SCITEGIC>MOL_PROPERTY
Valence
SciTegic.value.DoubleValue
5.347

@<SCITEGIC>MOL_PROPERTY
Coulomb
SciTegic.value.DoubleValue
45.870

@<SCITEGIC>MOL_PROPERTY
VdW
SciTegic.value.DoubleValue
0.325

@<SCITEGIC>MOL_PROPERTY
VdW6
SciTegic.value.DoubleValue
-6.161

@<SCITEGIC>MOL_PROPERTY
VdW12
SciTegic.value.DoubleValue
6.486

@<SCITEGIC>MOL_PROPERTY
Bond
SciTegic.value.DoubleValue
0.201

@<SCITEGIC>MOL_PROPERTY
Angle
SciTegic.value.DoubleValue
1.485

@<SCITEGIC>MOL_PROPERTY
Pdih
SciTegic.value.DoubleValue
3.662

@<SCITEGIC>MOL_PROPERTY
Idih
SciTegic.value.DoubleValue
0.000

@<SCITEGIC>MOL_PROPERTY
Tether
SciTegic.value.DoubleValue
0.000

@<TRIPOS>MOLECULE
guest-s11_confgen4.mol2 : confsearch ligand conformer 209
          20          19           1
SMALL
USER_CHARGES
 
@<TRIPOS>ATOM
       1    N1      17.290622   19.948107   21.246033 N.4        1 MOL1        -0.5919
       2    H1      17.241402   19.238490   20.508192 H          1 MOL1         0.3682
       3    H2      16.334922   20.083497   21.592308 H          1 MOL1         0.3682
       4    H3      17.572302   20.826986   20.800370 H          1 MOL1         0.3682
       5    C1      18.240213   19.546048   22.356490 C.3        1 MOL1         0.0252
       6    H4      17.863934   18.622305   22.804408 H          1 MOL1         0.0971
       7    H5      18.219806   20.330010   23.118396 H          1 MOL1         0.0971
       8    C2      19.685083   19.334419   21.869839 C.3        1 MOL1        -0.1369
       9    H6      19.698625   18.557689   21.093582 H          1 MOL1         0.0997
      10    H7      20.053287   20.259510   21.406481 H          1 MOL1         0.0997
      11    C3      20.619236   18.926303   23.030671 C.3        1 MOL1        -0.1329
      12    H8      20.244968   18.003344   23.495279 H          1 MOL1         0.0997
      13    H9      20.599278   19.703161   23.807771 H          1 MOL1         0.0997
      14    C4      22.073064   18.710954   22.553655 C.3        1 MOL1        -0.1305
      15    H10     22.097870   17.933030   21.777596 H          1 MOL1         0.0997
      16    H11     22.452173   19.632622   22.090135 H          1 MOL1         0.0997
      17    C5      23.002650   18.303292   23.716695 C.3        1 MOL1        -0.2320
      18    H12     22.668759   17.365258   24.179107 H          1 MOL1         0.1008
      19    H13     24.029655   18.154990   23.358491 H          1 MOL1         0.1008
      20    H14     23.025944   19.078170   24.494021 H          1 MOL1         0.1008
@<TRIPOS>BOND
    1     1     2    1
    2     1     3    1
    3     1     4    1
    4     1     5    1
    5     5     6    1
    6     5     7    1
    7     5     8    1
    8     8     9    1
    9     8    10    1
   10     8    11    1
   11    11    12    1
   12    11    13    1
   13    11    14    1
   14    14    15    1
   15    14    16    1
   16    14    17    1
   17    17    18    1
   18    17    19    1
   19    17    20    1
@<TRIPOS>SUBSTRUCTURE
       1 MOL1            1 RESIDUE      1      MOL     
@<SCITEGIC>MOL_PROPERTY
VConf Rank
SciTegic.value.IntegerValue
209

@<SCITEGIC>MOL_PROPERTY
Conf_Id
SciTegic.value.IntegerValue
72

@<SCITEGIC>MOL_PROPERTY
Delta U+W
SciTegic.value.DoubleValue
0.000

@<SCITEGIC>MOL_PROPERTY
U+W
SciTegic.value.DoubleValue
-11.778

@<SCITEGIC>MOL_PROPERTY
Grad RMS
SciTegic.value.DoubleValue
0.000000

@<SCITEGIC>MOL_PROPERTY
U
SciTegic.value.DoubleValue
45.772

@<SCITEGIC>MOL_PROPERTY
W
SciTegic.value.DoubleValue
-57.550

@<SCITEGIC>MOL_PROPERTY
W(PB)
SciTegic.value.DoubleValue
-59.511

@<SCITEGIC>MOL_PROPERTY
W(SA)
SciTegic.value.DoubleValue
1.961

@<SCITEGIC>MOL_PROPERTY
Valence
SciTegic.value.DoubleValue
1.299

@<SCITEGIC>MOL_PROPERTY
Coulomb
SciTegic.value.DoubleValue
44.177

@<SCITEGIC>MOL_PROPERTY
VdW
SciTegic.value.DoubleValue
0.297

@<SCITEGIC>MOL_PROPERTY
VdW6
SciTegic.value.DoubleValue
-3.490

@<SCITEGIC>MOL_PROPERTY
VdW12
SciTegic.value.DoubleValue
3.786

@<SCITEGIC>MOL_PROPERTY
Bond
SciTegic.value.DoubleValue
0.096

@<SCITEGIC>MOL_PROPERTY
Angle
SciTegic.value.DoubleValue
0.381

@<SCITEGIC>MOL_PROPERTY
Pdih
SciTegic.value.DoubleValue
0.822

@<SCITEGIC>MOL_PROPERTY
Idih
SciTegic.value.DoubleValue
0.000

@<SCITEGIC>MOL_PROPERTY
Tether
SciTegic.value.DoubleValue
0.000

@<TRIPOS>MOLECULE
guest-s11_confgen4.mol2 : confsearch ligand conformer 210
          20          19           1
SMALL
USER_CHARGES
 
@<TRIPOS>ATOM
       1    N1      20.311506   19.592335   25.450338 N.4        1 MOL1        -0.5919
       2    H1      21.194823   19.073731   25.484070 H          1 MOL1         0.3682
       3    H2      20.547957   20.589393   25.432179 H          1 MOL1         0.3682
       4    H3      19.829997   19.417272   26.338642 H          1 MOL1         0.3682
       5    C1      19.462927   19.189591   24.261101 C.3        1 MOL1         0.0252
       6    H4      18.528996   19.756406   24.305676 H          1 MOL1         0.0971
       7    H5      19.224638   18.127141   24.360729 H          1 MOL1         0.0971
       8    C2      20.156620   19.439986   22.910042 C.3        1 MOL1        -0.1369
       9    H6      20.408369   20.505126   22.821098 H          1 MOL1         0.0997
      10    H7      21.100421   18.880876   22.883535 H          1 MOL1         0.0997
      11    C3      19.254867   19.017345   21.726258 C.3        1 MOL1        -0.1329
      12    H8      18.286722   19.530056   21.813223 H          1 MOL1         0.0997
      13    H9      19.040792   17.941368   21.789759 H          1 MOL1         0.0997
      14    C4      19.861913   19.343363   20.339940 C.3        1 MOL1        -0.1305
      15    H10     19.118115   19.109267   19.565407 H          1 MOL1         0.0997
      16    H11     20.055462   20.422492   20.263154 H          1 MOL1         0.0997
      17    C5      21.159528   18.559728   20.037216 C.3        1 MOL1        -0.2320
      18    H12     20.999882   17.478065   20.134847 H          1 MOL1         0.1008
      19    H13     21.497132   18.757391   19.011591 H          1 MOL1         0.1008
      20    H14     21.973361   18.849964   20.713131 H          1 MOL1         0.1008
@<TRIPOS>BOND
    1     1     2    1
    2     1     3    1
    3     1     4    1
    4     1     5    1
    5     5     6    1
    6     5     7    1
    7     5     8    1
    8     8     9    1
    9     8    10    1
   10     8    11    1
   11    11    12    1
   12    11    13    1
   13    11    14    1
   14    14    15    1
   15    14    16    1
   16    14    17    1
   17    17    18    1
   18    17    19    1
   19    17    20    1
@<TRIPOS>SUBSTRUCTURE
       1 MOL1            1 RESIDUE      1      MOL     
@<SCITEGIC>MOL_PROPERTY
VConf Rank
SciTegic.value.IntegerValue
210

@<SCITEGIC>MOL_PROPERTY
Conf_Id
SciTegic.value.IntegerValue
42

@<SCITEGIC>MOL_PROPERTY
Delta U+W
SciTegic.value.DoubleValue
0.508

@<SCITEGIC>MOL_PROPERTY
U+W
SciTegic.value.DoubleValue
-11.270

@<SCITEGIC>MOL_PROPERTY
Grad RMS
SciTegic.value.DoubleValue
0.000000

@<SCITEGIC>MOL_PROPERTY
U
SciTegic.value.DoubleValue
46.486

@<SCITEGIC>MOL_PROPERTY
W
SciTegic.value.DoubleValue
-57.756

@<SCITEGIC>MOL_PROPERTY
W(PB)
SciTegic.value.DoubleValue
-59.705

@<SCITEGIC>MOL_PROPERTY
W(SA)
SciTegic.value.DoubleValue
1.949

@<SCITEGIC>MOL_PROPERTY
Valence
SciTegic.value.DoubleValue
1.806

@<SCITEGIC>MOL_PROPERTY
Coulomb
SciTegic.value.DoubleValue
44.248

@<SCITEGIC>MOL_PROPERTY
VdW
SciTegic.value.DoubleValue
0.433

@<SCITEGIC>MOL_PROPERTY
VdW6
SciTegic.value.DoubleValue
-4.089

@<SCITEGIC>MOL_PROPERTY
VdW12
SciTegic.value.DoubleValue
4.522

@<SCITEGIC>MOL_PROPERTY
Bond
SciTegic.value.DoubleValue
0.131

@<SCITEGIC>MOL_PROPERTY
Angle
SciTegic.value.DoubleValue
0.628

@<SCITEGIC>MOL_PROPERTY
Pdih
SciTegic.value.DoubleValue
1.047

@<SCITEGIC>MOL_PROPERTY
Idih
SciTegic.value.DoubleValue
0.000

@<SCITEGIC>MOL_PROPERTY
Tether
SciTegic.value.DoubleValue
0.000

@<TRIPOS>MOLECULE
guest-s11_confgen4.mol2 : confsearch ligand conformer 211
          20          19           1
SMALL
USER_CHARGES
 
@<TRIPOS>ATOM
       1    N1      17.295485   18.144093   22.520518 N.4        1 MOL1        -0.5919
       2    H1      16.858522   19.061615   22.387928 H          1 MOL1         0.3682
       3    H2      17.393210   17.719964   21.592672 H          1 MOL1         0.3682
       4    H3      16.625518   17.568388   23.041373 H          1 MOL1         0.3682
       5    C1      18.625781   18.248630   23.238827 C.3        1 MOL1         0.0252
       6    H4      19.017935   17.236718   23.372079 H          1 MOL1         0.0971
       7    H5      18.442555   18.678598   24.227285 H          1 MOL1         0.0971
       8    C2      19.655715   19.107554   22.483341 C.3        1 MOL1        -0.1369
       9    H6      19.818320   18.677258   21.487113 H          1 MOL1         0.0997
      10    H7      19.251407   20.118080   22.337795 H          1 MOL1         0.0997
      11    C3      20.995390   19.188427   23.252668 C.3        1 MOL1        -0.1329
      12    H8      21.423092   18.181673   23.358042 H          1 MOL1         0.0997
      13    H9      20.801106   19.549229   24.272384 H          1 MOL1         0.0997
      14    C4      22.033807   20.125012   22.588464 C.3        1 MOL1        -0.1305
      15    H10     21.618859   21.139094   22.502828 H          1 MOL1         0.0997
      16    H11     22.908593   20.206300   23.248829 H          1 MOL1         0.0997
      17    C5      22.502599   19.636179   21.198928 C.3        1 MOL1        -0.2320
      18    H12     21.684690   19.652851   20.468058 H          1 MOL1         0.1008
      19    H13     23.301522   20.282918   20.813699 H          1 MOL1         0.1008
      20    H14     22.896235   18.612833   21.252088 H          1 MOL1         0.1008
@<TRIPOS>BOND
    1     1     2    1
    2     1     3    1
    3     1     4    1
    4     1     5    1
    5     5     6    1
    6     5     7    1
    7     5     8    1
    8     8     9    1
    9     8    10    1
   10     8    11    1
   11    11    12    1
   12    11    13    1
   13    11    14    1
   14    14    15    1
   15    14    16    1
   16    14    17    1
   17    17    18    1
   18    17    19    1
   19    17    20    1
@<TRIPOS>SUBSTRUCTURE
       1 MOL1            1 RESIDUE      1      MOL     
@<SCITEGIC>MOL_PROPERTY
VConf Rank
SciTegic.value.IntegerValue
211

@<SCITEGIC>MOL_PROPERTY
Conf_Id
SciTegic.value.IntegerValue
41

@<SCITEGIC>MOL_PROPERTY
Delta U+W
SciTegic.value.DoubleValue
0.515

@<SCITEGIC>MOL_PROPERTY
U+W
SciTegic.value.DoubleValue
-11.263

@<SCITEGIC>MOL_PROPERTY
Grad RMS
SciTegic.value.DoubleValue
0.000000

@<SCITEGIC>MOL_PROPERTY
U
SciTegic.value.DoubleValue
46.486

@<SCITEGIC>MOL_PROPERTY
W
SciTegic.value.DoubleValue
-57.749

@<SCITEGIC>MOL_PROPERTY
W(PB)
SciTegic.value.DoubleValue
-59.685

@<SCITEGIC>MOL_PROPERTY
W(SA)
SciTegic.value.DoubleValue
1.936

@<SCITEGIC>MOL_PROPERTY
Valence
SciTegic.value.DoubleValue
1.806

@<SCITEGIC>MOL_PROPERTY
Coulomb
SciTegic.value.DoubleValue
44.248

@<SCITEGIC>MOL_PROPERTY
VdW
SciTegic.value.DoubleValue
0.433

@<SCITEGIC>MOL_PROPERTY
VdW6
SciTegic.value.DoubleValue
-4.089

@<SCITEGIC>MOL_PROPERTY
VdW12
SciTegic.value.DoubleValue
4.522

@<SCITEGIC>MOL_PROPERTY
Bond
SciTegic.value.DoubleValue
0.131

@<SCITEGIC>MOL_PROPERTY
Angle
SciTegic.value.DoubleValue
0.628

@<SCITEGIC>MOL_PROPERTY
Pdih
SciTegic.value.DoubleValue
1.047

@<SCITEGIC>MOL_PROPERTY
Idih
SciTegic.value.DoubleValue
0.000

@<SCITEGIC>MOL_PROPERTY
Tether
SciTegic.value.DoubleValue
0.000

@<TRIPOS>MOLECULE
guest-s11_confgen4.mol2 : confsearch ligand conformer 212
          20          19           1
SMALL
USER_CHARGES
 
@<TRIPOS>ATOM
       1    N1      20.867009   17.919727   20.080922 N.4        1 MOL1        -0.5919
       2    H1      21.104950   17.960552   19.084318 H          1 MOL1         0.3682
       3    H2      21.750274   17.935830   20.599115 H          1 MOL1         0.3682
       4    H3      20.435206   17.005248   20.246654 H          1 MOL1         0.3682
       5    C1      19.951940   19.058630   20.488002 C.3        1 MOL1         0.0252
       6    H4      19.055267   19.000849   19.864914 H          1 MOL1         0.0971
       7    H5      20.460772   20.000205   20.264465 H          1 MOL1         0.0971
       8    C2      19.542280   19.030441   21.973685 C.3        1 MOL1        -0.1369
       9    H6      18.795047   19.817635   22.133610 H          1 MOL1         0.0997
      10    H7      19.047194   18.076651   22.199218 H          1 MOL1         0.0997
      11    C3      20.742596   19.245727   22.929722 C.3        1 MOL1        -0.1329
      12    H8      21.218924   20.212045   22.713369 H          1 MOL1         0.0997
      13    H9      21.503351   18.477020   22.740120 H          1 MOL1         0.0997
      14    C4      20.356401   19.183913   24.427725 C.3        1 MOL1        -0.1305
      15    H10     19.891770   18.213576   24.652293 H          1 MOL1         0.0997
      16    H11     21.274453   19.230946   25.030144 H          1 MOL1         0.0997
      17    C5      19.413709   20.326744   24.869350 C.3        1 MOL1        -0.2320
      18    H12     18.431936   20.250466   24.386056 H          1 MOL1         0.1008
      19    H13     19.249705   20.291425   25.954155 H          1 MOL1         0.1008
      20    H14     19.841746   21.308120   24.627092 H          1 MOL1         0.1008
@<TRIPOS>BOND
    1     1     2    1
    2     1     3    1
    3     1     4    1
    4     1     5    1
    5     5     6    1
    6     5     7    1
    7     5     8    1
    8     8     9    1
    9     8    10    1
   10     8    11    1
   11    11    12    1
   12    11    13    1
   13    11    14    1
   14    14    15    1
   15    14    16    1
   16    14    17    1
   17    17    18    1
   18    17    19    1
   19    17    20    1
@<TRIPOS>SUBSTRUCTURE
       1 MOL1            1 RESIDUE      1      MOL     
@<SCITEGIC>MOL_PROPERTY
VConf Rank
SciTegic.value.IntegerValue
212

@<SCITEGIC>MOL_PROPERTY
Conf_Id
SciTegic.value.IntegerValue
33

@<SCITEGIC>MOL_PROPERTY
Delta U+W
SciTegic.value.DoubleValue
0.703

@<SCITEGIC>MOL_PROPERTY
U+W
SciTegic.value.DoubleValue
-11.075

@<SCITEGIC>MOL_PROPERTY
Grad RMS
SciTegic.value.DoubleValue
0.000000

@<SCITEGIC>MOL_PROPERTY
U
SciTegic.value.DoubleValue
47.080

@<SCITEGIC>MOL_PROPERTY
W
SciTegic.value.DoubleValue
-58.154

@<SCITEGIC>MOL_PROPERTY
W(PB)
SciTegic.value.DoubleValue
-60.053

@<SCITEGIC>MOL_PROPERTY
W(SA)
SciTegic.value.DoubleValue
1.899

@<SCITEGIC>MOL_PROPERTY
Valence
SciTegic.value.DoubleValue
1.943

@<SCITEGIC>MOL_PROPERTY
Coulomb
SciTegic.value.DoubleValue
44.572

@<SCITEGIC>MOL_PROPERTY
VdW
SciTegic.value.DoubleValue
0.565

@<SCITEGIC>MOL_PROPERTY
VdW6
SciTegic.value.DoubleValue
-4.575

@<SCITEGIC>MOL_PROPERTY
VdW12
SciTegic.value.DoubleValue
5.139

@<SCITEGIC>MOL_PROPERTY
Bond
SciTegic.value.DoubleValue
0.158

@<SCITEGIC>MOL_PROPERTY
Angle
SciTegic.value.DoubleValue
0.700

@<SCITEGIC>MOL_PROPERTY
Pdih
SciTegic.value.DoubleValue
1.085

@<SCITEGIC>MOL_PROPERTY
Idih
SciTegic.value.DoubleValue
0.000

@<SCITEGIC>MOL_PROPERTY
Tether
SciTegic.value.DoubleValue
0.000

@<TRIPOS>MOLECULE
guest-s11_confgen4.mol2 : confsearch ligand conformer 213
          20          19           1
SMALL
USER_CHARGES
 
@<TRIPOS>ATOM
       1    N1      22.168257   20.711701   23.489423 N.4        1 MOL1        -0.5919
       2    H1      22.880086   21.443047   23.389764 H          1 MOL1         0.3682
       3    H2      21.852806   20.734185   24.464194 H          1 MOL1         0.3682
       4    H3      22.640475   19.814486   23.344666 H          1 MOL1         0.3682
       5    C1      21.019373   20.908853   22.519187 C.3        1 MOL1         0.0252
       6    H4      21.425720   20.897730   21.504199 H          1 MOL1         0.0971
       7    H5      20.596461   21.899939   22.704913 H          1 MOL1         0.0971
       8    C2      19.907146   19.849052   22.644232 C.3        1 MOL1        -0.1369
       9    H6      19.513093   19.850605   23.669128 H          1 MOL1         0.0997
      10    H7      19.079529   20.148241   21.989142 H          1 MOL1         0.0997
      11    C3      20.389746   18.427002   22.262147 C.3        1 MOL1        -0.1329
      12    H8      21.241319   18.147312   22.896343 H          1 MOL1         0.0997
      13    H9      20.761598   18.428127   21.228129 H          1 MOL1         0.0997
      14    C4      19.295734   17.342453   22.416639 C.3        1 MOL1        -0.1305
      15    H10     19.748970   16.357302   22.237760 H          1 MOL1         0.0997
      16    H11     18.930026   17.328030   23.452938 H          1 MOL1         0.0997
      17    C5      18.105337   17.524656   21.447351 C.3        1 MOL1        -0.2320
      18    H12     18.447819   17.573875   20.405579 H          1 MOL1         0.1008
      19    H13     17.409139   16.680160   21.531502 H          1 MOL1         0.1008
      20    H14     17.540818   18.438978   21.667817 H          1 MOL1         0.1008
@<TRIPOS>BOND
    1     1     2    1
    2     1     3    1
    3     1     4    1
    4     1     5    1
    5     5     6    1
    6     5     7    1
    7     5     8    1
    8     8     9    1
    9     8    10    1
   10     8    11    1
   11    11    12    1
   12    11    13    1
   13    11    14    1
   14    14    15    1
   15    14    16    1
   16    14    17    1
   17    17    18    1
   18    17    19    1
   19    17    20    1
@<TRIPOS>SUBSTRUCTURE
       1 MOL1            1 RESIDUE      1      MOL     
@<SCITEGIC>MOL_PROPERTY
VConf Rank
SciTegic.value.IntegerValue
213

@<SCITEGIC>MOL_PROPERTY
Conf_Id
SciTegic.value.IntegerValue
24

@<SCITEGIC>MOL_PROPERTY
Delta U+W
SciTegic.value.DoubleValue
0.847

@<SCITEGIC>MOL_PROPERTY
U+W
SciTegic.value.DoubleValue
-10.931

@<SCITEGIC>MOL_PROPERTY
Grad RMS
SciTegic.value.DoubleValue
0.000000

@<SCITEGIC>MOL_PROPERTY
U
SciTegic.value.DoubleValue
47.080

@<SCITEGIC>MOL_PROPERTY
W
SciTegic.value.DoubleValue
-58.011

@<SCITEGIC>MOL_PROPERTY
W(PB)
SciTegic.value.DoubleValue
-59.914

@<SCITEGIC>MOL_PROPERTY
W(SA)
SciTegic.value.DoubleValue
1.903

@<SCITEGIC>MOL_PROPERTY
Valence
SciTegic.value.DoubleValue
1.943

@<SCITEGIC>MOL_PROPERTY
Coulomb
SciTegic.value.DoubleValue
44.572

@<SCITEGIC>MOL_PROPERTY
VdW
SciTegic.value.DoubleValue
0.565

@<SCITEGIC>MOL_PROPERTY
VdW6
SciTegic.value.DoubleValue
-4.575

@<SCITEGIC>MOL_PROPERTY
VdW12
SciTegic.value.DoubleValue
5.140

@<SCITEGIC>MOL_PROPERTY
Bond
SciTegic.value.DoubleValue
0.158

@<SCITEGIC>MOL_PROPERTY
Angle
SciTegic.value.DoubleValue
0.700

@<SCITEGIC>MOL_PROPERTY
Pdih
SciTegic.value.DoubleValue
1.085

@<SCITEGIC>MOL_PROPERTY
Idih
SciTegic.value.DoubleValue
0.000

@<SCITEGIC>MOL_PROPERTY
Tether
SciTegic.value.DoubleValue
0.000

@<TRIPOS>MOLECULE
guest-s11_confgen4.mol2 : confsearch ligand conformer 214
          20          19           1
SMALL
USER_CHARGES
 
@<TRIPOS>ATOM
       1    N1      19.366508   21.843995   22.557128 N.4        1 MOL1        -0.5919
       2    H1      18.746502   22.291190   23.240575 H          1 MOL1         0.3682
       3    H2      20.320747   22.143365   22.780795 H          1 MOL1         0.3682
       4    H3      19.133449   22.240061   21.641091 H          1 MOL1         0.3682
       5    C1      19.227588   20.335101   22.573432 C.3        1 MOL1         0.0252
       6    H4      18.184488   20.089280   22.356886 H          1 MOL1         0.0971
       7    H5      19.460456   19.987349   23.583296 H          1 MOL1         0.0971
       8    C2      20.147082   19.631611   21.557430 C.3        1 MOL1        -0.1369
       9    H6      19.933532   20.018344   20.552147 H          1 MOL1         0.0997
      10    H7      21.193872   19.885013   21.768312 H          1 MOL1         0.0997
      11    C3      19.965538   18.093113   21.549578 C.3        1 MOL1        -0.1329
      12    H8      20.639111   17.658767   20.797976 H          1 MOL1         0.0997
      13    H9      18.946239   17.856098   21.214398 H          1 MOL1         0.0997
      14    C4      20.215275   17.401228   22.914184 C.3        1 MOL1        -0.1305
      15    H10     19.480568   17.745800   23.654625 H          1 MOL1         0.0997
      16    H11     20.041071   16.322441   22.796917 H          1 MOL1         0.0997
      17    C5      21.644771   17.617986   23.460597 C.3        1 MOL1        -0.2320
      18    H12     21.798676   17.033903   24.377147 H          1 MOL1         0.1008
      19    H13     22.399410   17.300091   22.729545 H          1 MOL1         0.1008
      20    H14     21.826397   18.671554   23.706853 H          1 MOL1         0.1008
@<TRIPOS>BOND
    1     1     2    1
    2     1     3    1
    3     1     4    1
    4     1     5    1
    5     5     6    1
    6     5     7    1
    7     5     8    1
    8     8     9    1
    9     8    10    1
   10     8    11    1
   11    11    12    1
   12    11    13    1
   13    11    14    1
   14    14    15    1
   15    14    16    1
   16    14    17    1
   17    17    18    1
   18    17    19    1
   19    17    20    1
@<TRIPOS>SUBSTRUCTURE
       1 MOL1            1 RESIDUE      1      MOL     
@<SCITEGIC>MOL_PROPERTY
VConf Rank
SciTegic.value.IntegerValue
214

@<SCITEGIC>MOL_PROPERTY
Conf_Id
SciTegic.value.IntegerValue
64

@<SCITEGIC>MOL_PROPERTY
Delta U+W
SciTegic.value.DoubleValue
0.707

@<SCITEGIC>MOL_PROPERTY
U+W
SciTegic.value.DoubleValue
-11.070

@<SCITEGIC>MOL_PROPERTY
Grad RMS
SciTegic.value.DoubleValue
0.000000

@<SCITEGIC>MOL_PROPERTY
U
SciTegic.value.DoubleValue
47.077

@<SCITEGIC>MOL_PROPERTY
W
SciTegic.value.DoubleValue
-58.148

@<SCITEGIC>MOL_PROPERTY
W(PB)
SciTegic.value.DoubleValue
-60.054

@<SCITEGIC>MOL_PROPERTY
W(SA)
SciTegic.value.DoubleValue
1.906

@<SCITEGIC>MOL_PROPERTY
Valence
SciTegic.value.DoubleValue
2.039

@<SCITEGIC>MOL_PROPERTY
Coulomb
SciTegic.value.DoubleValue
44.655

@<SCITEGIC>MOL_PROPERTY
VdW
SciTegic.value.DoubleValue
0.383

@<SCITEGIC>MOL_PROPERTY
VdW6
SciTegic.value.DoubleValue
-4.912

@<SCITEGIC>MOL_PROPERTY
VdW12
SciTegic.value.DoubleValue
5.295

@<SCITEGIC>MOL_PROPERTY
Bond
SciTegic.value.DoubleValue
0.159

@<SCITEGIC>MOL_PROPERTY
Angle
SciTegic.value.DoubleValue
0.856

@<SCITEGIC>MOL_PROPERTY
Pdih
SciTegic.value.DoubleValue
1.024

@<SCITEGIC>MOL_PROPERTY
Idih
SciTegic.value.DoubleValue
0.000

@<SCITEGIC>MOL_PROPERTY
Tether
SciTegic.value.DoubleValue
0.000

@<TRIPOS>MOLECULE
guest-s11_confgen4.mol2 : confsearch ligand conformer 215
          20          19           1
SMALL
USER_CHARGES
 
@<TRIPOS>ATOM
       1    N1      18.360079   19.506732   24.479165 N.4        1 MOL1        -0.5919
       2    H1      17.853645   20.393863   24.396519 H          1 MOL1         0.3682
       3    H2      17.746002   18.773836   24.110388 H          1 MOL1         0.3682
       4    H3      18.474763   19.322380   25.481338 H          1 MOL1         0.3682
       5    C1      19.692092   19.545931   23.757688 C.3        1 MOL1         0.0252
       6    H4      20.186769   18.583627   23.913419 H          1 MOL1         0.0971
       7    H5      20.303722   20.325865   24.219197 H          1 MOL1         0.0971
       8    C2      19.554977   19.820673   22.248272 C.3        1 MOL1        -0.1369
       9    H6      18.933554   19.043345   21.785616 H          1 MOL1         0.0997
      10    H7      19.020323   20.768736   22.103077 H          1 MOL1         0.0997
      11    C3      20.923659   19.903754   21.527298 C.3        1 MOL1        -0.1329
      12    H8      21.480895   20.766297   21.918450 H          1 MOL1         0.0997
      13    H9      20.753085   20.112430   20.462111 H          1 MOL1         0.0997
      14    C4      21.807467   18.637115   21.660454 C.3        1 MOL1        -0.1305
      15    H10     22.754205   18.813446   21.130854 H          1 MOL1         0.0997
      16    H11     22.077557   18.471527   22.712314 H          1 MOL1         0.0997
      17    C5      21.146165   17.363257   21.086892 C.3        1 MOL1        -0.2320
      18    H12     20.847622   17.510077   20.040808 H          1 MOL1         0.1008
      19    H13     21.846033   16.518298   21.120570 H          1 MOL1         0.1008
      20    H14     20.256602   17.077443   21.661891 H          1 MOL1         0.1008
@<TRIPOS>BOND
    1     1     2    1
    2     1     3    1
    3     1     4    1
    4     1     5    1
    5     5     6    1
    6     5     7    1
    7     5     8    1
    8     8     9    1
    9     8    10    1
   10     8    11    1
   11    11    12    1
   12    11    13    1
   13    11    14    1
   14    14    15    1
   15    14    16    1
   16    14    17    1
   17    17    18    1
   18    17    19    1
   19    17    20    1
@<TRIPOS>SUBSTRUCTURE
       1 MOL1            1 RESIDUE      1      MOL     
@<SCITEGIC>MOL_PROPERTY
VConf Rank
SciTegic.value.IntegerValue
215

@<SCITEGIC>MOL_PROPERTY
Conf_Id
SciTegic.value.IntegerValue
22

@<SCITEGIC>MOL_PROPERTY
Delta U+W
SciTegic.value.DoubleValue
0.731

@<SCITEGIC>MOL_PROPERTY
U+W
SciTegic.value.DoubleValue
-11.047

@<SCITEGIC>MOL_PROPERTY
Grad RMS
SciTegic.value.DoubleValue
0.000000

@<SCITEGIC>MOL_PROPERTY
U
SciTegic.value.DoubleValue
47.078

@<SCITEGIC>MOL_PROPERTY
W
SciTegic.value.DoubleValue
-58.125

@<SCITEGIC>MOL_PROPERTY
W(PB)
SciTegic.value.DoubleValue
-60.031

@<SCITEGIC>MOL_PROPERTY
W(SA)
SciTegic.value.DoubleValue
1.906

@<SCITEGIC>MOL_PROPERTY
Valence
SciTegic.value.DoubleValue
2.039

@<SCITEGIC>MOL_PROPERTY
Coulomb
SciTegic.value.DoubleValue
44.655

@<SCITEGIC>MOL_PROPERTY
VdW
SciTegic.value.DoubleValue
0.383

@<SCITEGIC>MOL_PROPERTY
VdW6
SciTegic.value.DoubleValue
-4.913

@<SCITEGIC>MOL_PROPERTY
VdW12
SciTegic.value.DoubleValue
5.296

@<SCITEGIC>MOL_PROPERTY
Bond
SciTegic.value.DoubleValue
0.159

@<SCITEGIC>MOL_PROPERTY
Angle
SciTegic.value.DoubleValue
0.856

@<SCITEGIC>MOL_PROPERTY
Pdih
SciTegic.value.DoubleValue
1.024

@<SCITEGIC>MOL_PROPERTY
Idih
SciTegic.value.DoubleValue
0.000

@<SCITEGIC>MOL_PROPERTY
Tether
SciTegic.value.DoubleValue
0.000

@<TRIPOS>MOLECULE
guest-s11_confgen4.mol2 : confsearch ligand conformer 216
          20          19           1
SMALL
USER_CHARGES
 
@<TRIPOS>ATOM
       1    N1      18.539831   17.001960   22.711532 N.4        1 MOL1        -0.5919
       2    H1      18.245245   17.050722   23.691928 H          1 MOL1         0.3682
       3    H2      17.693120   17.074934   22.138760 H          1 MOL1         0.3682
       4    H3      18.919729   16.061385   22.561566 H          1 MOL1         0.3682
       5    C1      19.549749   18.078793   22.369323 C.3        1 MOL1         0.0252
       6    H4      19.838986   17.951129   21.322690 H          1 MOL1         0.0971
       7    H5      20.430336   17.918501   22.995534 H          1 MOL1         0.0971
       8    C2      19.011424   19.503751   22.589258 C.3        1 MOL1        -0.1369
       9    H6      18.061849   19.609838   22.047986 H          1 MOL1         0.0997
      10    H7      18.779415   19.646743   23.652983 H          1 MOL1         0.0997
      11    C3      19.975070   20.619959   22.112416 C.3        1 MOL1        -0.1329
      12    H8      19.453318   21.579571   22.232720 H          1 MOL1         0.0997
      13    H9      20.167217   20.519957   21.035184 H          1 MOL1         0.0997
      14    C4      21.314526   20.702497   22.889741 C.3        1 MOL1        -0.1305
      15    H10     21.667335   21.743018   22.858980 H          1 MOL1         0.0997
      16    H11     21.154055   20.469971   23.951777 H          1 MOL1         0.0997
      17    C5      22.433471   19.806996   22.307611 C.3        1 MOL1        -0.2320
      18    H12     22.196002   18.740999   22.385921 H          1 MOL1         0.1008
      19    H13     22.613413   20.039229   21.249928 H          1 MOL1         0.1008
      20    H14     23.374516   19.972663   22.847957 H          1 MOL1         0.1008
@<TRIPOS>BOND
    1     1     2    1
    2     1     3    1
    3     1     4    1
    4     1     5    1
    5     5     6    1
    6     5     7    1
    7     5     8    1
    8     8     9    1
    9     8    10    1
   10     8    11    1
   11    11    12    1
   12    11    13    1
   13    11    14    1
   14    14    15    1
   15    14    16    1
   16    14    17    1
   17    17    18    1
   18    17    19    1
   19    17    20    1
@<TRIPOS>SUBSTRUCTURE
       1 MOL1            1 RESIDUE      1      MOL     
@<SCITEGIC>MOL_PROPERTY
VConf Rank
SciTegic.value.IntegerValue
216

@<SCITEGIC>MOL_PROPERTY
Conf_Id
SciTegic.value.IntegerValue
61

@<SCITEGIC>MOL_PROPERTY
Delta U+W
SciTegic.value.DoubleValue
2.669

@<SCITEGIC>MOL_PROPERTY
U+W
SciTegic.value.DoubleValue
-9.108

@<SCITEGIC>MOL_PROPERTY
Grad RMS
SciTegic.value.DoubleValue
0.000000

@<SCITEGIC>MOL_PROPERTY
U
SciTegic.value.DoubleValue
48.916

@<SCITEGIC>MOL_PROPERTY
W
SciTegic.value.DoubleValue
-58.025

@<SCITEGIC>MOL_PROPERTY
W(PB)
SciTegic.value.DoubleValue
-59.935

@<SCITEGIC>MOL_PROPERTY
W(SA)
SciTegic.value.DoubleValue
1.911

@<SCITEGIC>MOL_PROPERTY
Valence
SciTegic.value.DoubleValue
3.785

@<SCITEGIC>MOL_PROPERTY
Coulomb
SciTegic.value.DoubleValue
44.716

@<SCITEGIC>MOL_PROPERTY
VdW
SciTegic.value.DoubleValue
0.415

@<SCITEGIC>MOL_PROPERTY
VdW6
SciTegic.value.DoubleValue
-4.836

@<SCITEGIC>MOL_PROPERTY
VdW12
SciTegic.value.DoubleValue
5.251

@<SCITEGIC>MOL_PROPERTY
Bond
SciTegic.value.DoubleValue
0.175

@<SCITEGIC>MOL_PROPERTY
Angle
SciTegic.value.DoubleValue
1.195

@<SCITEGIC>MOL_PROPERTY
Pdih
SciTegic.value.DoubleValue
2.415

@<SCITEGIC>MOL_PROPERTY
Idih
SciTegic.value.DoubleValue
0.000

@<SCITEGIC>MOL_PROPERTY
Tether
SciTegic.value.DoubleValue
0.000

@<TRIPOS>MOLECULE
guest-s11_confgen4.mol2 : confsearch ligand conformer 217
          20          19           1
SMALL
USER_CHARGES
 
@<TRIPOS>ATOM
       1    N1      18.399172   17.736417   23.154296 N.4        1 MOL1        -0.5919
       2    H1      17.379659   17.626618   23.167609 H          1 MOL1         0.3682
       3    H2      18.784256   17.002984   23.757695 H          1 MOL1         0.3682
       4    H3      18.610570   18.634128   23.597524 H          1 MOL1         0.3682
       5    C1      18.954550   17.654830   21.745229 C.3        1 MOL1         0.0252
       6    H4      18.468230   18.419728   21.133870 H          1 MOL1         0.0971
       7    H5      18.672552   16.675710   21.348541 H          1 MOL1         0.0971
       8    C2      20.487431   17.808786   21.655516 C.3        1 MOL1        -0.1369
       9    H6      20.970906   17.237444   22.459030 H          1 MOL1         0.0997
      10    H7      20.815024   17.343130   20.716517 H          1 MOL1         0.0997
      11    C3      20.989347   19.275702   21.657876 C.3        1 MOL1        -0.1329
      12    H8      20.541084   19.817367   20.813408 H          1 MOL1         0.0997
      13    H9      22.072656   19.266394   21.473931 H          1 MOL1         0.0997
      14    C4      20.712512   20.046232   22.970110 C.3        1 MOL1        -0.1305
      15    H10     19.633294   20.198659   23.096229 H          1 MOL1         0.0997
      16    H11     21.063237   19.458346   23.829949 H          1 MOL1         0.0997
      17    C5      21.407496   21.424623   22.977294 C.3        1 MOL1        -0.2320
      18    H12     21.193398   21.962098   23.910211 H          1 MOL1         0.1008
      19    H13     22.496973   21.318961   22.893042 H          1 MOL1         0.1008
      20    H14     21.058951   22.046873   22.142674 H          1 MOL1         0.1008
@<TRIPOS>BOND
    1     1     2    1
    2     1     3    1
    3     1     4    1
    4     1     5    1
    5     5     6    1
    6     5     7    1
    7     5     8    1
    8     8     9    1
    9     8    10    1
   10     8    11    1
   11    11    12    1
   12    11    13    1
   13    11    14    1
   14    14    15    1
   15    14    16    1
   16    14    17    1
   17    17    18    1
   18    17    19    1
   19    17    20    1
@<TRIPOS>SUBSTRUCTURE
       1 MOL1            1 RESIDUE      1      MOL     
@<SCITEGIC>MOL_PROPERTY
VConf Rank
SciTegic.value.IntegerValue
217

@<SCITEGIC>MOL_PROPERTY
Conf_Id
SciTegic.value.IntegerValue
69

@<SCITEGIC>MOL_PROPERTY
Delta U+W
SciTegic.value.DoubleValue
2.811

@<SCITEGIC>MOL_PROPERTY
U+W
SciTegic.value.DoubleValue
-8.967

@<SCITEGIC>MOL_PROPERTY
Grad RMS
SciTegic.value.DoubleValue
0.000000

@<SCITEGIC>MOL_PROPERTY
U
SciTegic.value.DoubleValue
49.216

@<SCITEGIC>MOL_PROPERTY
W
SciTegic.value.DoubleValue
-58.183

@<SCITEGIC>MOL_PROPERTY
W(PB)
SciTegic.value.DoubleValue
-60.064

@<SCITEGIC>MOL_PROPERTY
W(SA)
SciTegic.value.DoubleValue
1.881

@<SCITEGIC>MOL_PROPERTY
Valence
SciTegic.value.DoubleValue
2.929

@<SCITEGIC>MOL_PROPERTY
Coulomb
SciTegic.value.DoubleValue
46.006

@<SCITEGIC>MOL_PROPERTY
VdW
SciTegic.value.DoubleValue
0.281

@<SCITEGIC>MOL_PROPERTY
VdW6
SciTegic.value.DoubleValue
-4.909

@<SCITEGIC>MOL_PROPERTY
VdW12
SciTegic.value.DoubleValue
5.190

@<SCITEGIC>MOL_PROPERTY
Bond
SciTegic.value.DoubleValue
0.156

@<SCITEGIC>MOL_PROPERTY
Angle
SciTegic.value.DoubleValue
0.974

@<SCITEGIC>MOL_PROPERTY
Pdih
SciTegic.value.DoubleValue
1.799

@<SCITEGIC>MOL_PROPERTY
Idih
SciTegic.value.DoubleValue
0.000

@<SCITEGIC>MOL_PROPERTY
Tether
SciTegic.value.DoubleValue
0.000

@<TRIPOS>MOLECULE
guest-s11_confgen4.mol2 : confsearch ligand conformer 218
          20          19           1
SMALL
USER_CHARGES
 
@<TRIPOS>ATOM
       1    N1      20.513874   18.667478   20.227717 N.4        1 MOL1        -0.5919
       2    H1      20.948923   18.140641   20.989429 H          1 MOL1         0.3682
       3    H2      19.739523   18.099102   19.870461 H          1 MOL1         0.3682
       4    H3      21.205784   18.733680   19.473713 H          1 MOL1         0.3682
       5    C1      20.044304   20.036652   20.680967 C.3        1 MOL1         0.0252
       6    H4      19.608313   20.528578   19.807195 H          1 MOL1         0.0971
       7    H5      20.915395   20.617467   20.995920 H          1 MOL1         0.0971
       8    C2      18.996668   20.007315   21.813696 C.3        1 MOL1        -0.1369
       9    H6      18.443542   20.955397   21.781074 H          1 MOL1         0.0997
      10    H7      18.255639   19.220213   21.620924 H          1 MOL1         0.0997
      11    C3      19.590664   19.853467   23.237519 C.3        1 MOL1        -0.1329
      12    H8      18.772207   19.961933   23.962669 H          1 MOL1         0.0997
      13    H9      20.285623   20.681254   23.435678 H          1 MOL1         0.0997
      14    C4      20.307260   18.506505   23.491481 C.3        1 MOL1        -0.1305
      15    H10     19.654839   17.673871   23.193135 H          1 MOL1         0.0997
      16    H11     21.217327   18.443845   22.881806 H          1 MOL1         0.0997
      17    C5      20.697983   18.341571   24.975782 C.3        1 MOL1        -0.2320
      18    H12     19.811143   18.358193   25.622667 H          1 MOL1         0.1008
      19    H13     21.213561   17.385982   25.137278 H          1 MOL1         0.1008
      20    H14     21.371500   19.146241   25.298508 H          1 MOL1         0.1008
@<TRIPOS>BOND
    1     1     2    1
    2     1     3    1
    3     1     4    1
    4     1     5    1
    5     5     6    1
    6     5     7    1
    7     5     8    1
    8     8     9    1
    9     8    10    1
   10     8    11    1
   11    11    12    1
   12    11    13    1
   13    11    14    1
   14    14    15    1
   15    14    16    1
   16    14    17    1
   17    17    18    1
   18    17    19    1
   19    17    20    1
@<TRIPOS>SUBSTRUCTURE
       1 MOL1            1 RESIDUE      1      MOL     
@<SCITEGIC>MOL_PROPERTY
VConf Rank
SciTegic.value.IntegerValue
218

@<SCITEGIC>MOL_PROPERTY
Conf_Id
SciTegic.value.IntegerValue
26

@<SCITEGIC>MOL_PROPERTY
Delta U+W
SciTegic.value.DoubleValue
2.809

@<SCITEGIC>MOL_PROPERTY
U+W
SciTegic.value.DoubleValue
-8.969

@<SCITEGIC>MOL_PROPERTY
Grad RMS
SciTegic.value.DoubleValue
0.000000

@<SCITEGIC>MOL_PROPERTY
U
SciTegic.value.DoubleValue
49.216

@<SCITEGIC>MOL_PROPERTY
W
SciTegic.value.DoubleValue
-58.185

@<SCITEGIC>MOL_PROPERTY
W(PB)
SciTegic.value.DoubleValue
-60.088

@<SCITEGIC>MOL_PROPERTY
W(SA)
SciTegic.value.DoubleValue
1.903

@<SCITEGIC>MOL_PROPERTY
Valence
SciTegic.value.DoubleValue
2.929

@<SCITEGIC>MOL_PROPERTY
Coulomb
SciTegic.value.DoubleValue
46.006

@<SCITEGIC>MOL_PROPERTY
VdW
SciTegic.value.DoubleValue
0.281

@<SCITEGIC>MOL_PROPERTY
VdW6
SciTegic.value.DoubleValue
-4.909

@<SCITEGIC>MOL_PROPERTY
VdW12
SciTegic.value.DoubleValue
5.190

@<SCITEGIC>MOL_PROPERTY
Bond
SciTegic.value.DoubleValue
0.156

@<SCITEGIC>MOL_PROPERTY
Angle
SciTegic.value.DoubleValue
0.974

@<SCITEGIC>MOL_PROPERTY
Pdih
SciTegic.value.DoubleValue
1.799

@<SCITEGIC>MOL_PROPERTY
Idih
SciTegic.value.DoubleValue
0.000

@<SCITEGIC>MOL_PROPERTY
Tether
SciTegic.value.DoubleValue
0.000

@<TRIPOS>MOLECULE
guest-s11_confgen4.mol2 : confsearch ligand conformer 219
          20          19           1
SMALL
USER_CHARGES
 
@<TRIPOS>ATOM
       1    N1      18.727518   17.513051   23.526584 N.4        1 MOL1        -0.5919
       2    H1      18.212014   18.397875   23.543401 H          1 MOL1         0.3682
       3    H2      18.211696   16.873708   22.914044 H          1 MOL1         0.3682
       4    H3      18.682681   17.120883   24.472894 H          1 MOL1         0.3682
       5    C1      20.158329   17.706032   23.063402 C.3        1 MOL1         0.0252
       6    H4      20.654352   16.732305   23.099824 H          1 MOL1         0.0971
       7    H5      20.659323   18.368385   23.774193 H          1 MOL1         0.0971
       8    C2      20.275709   18.287178   21.639751 C.3        1 MOL1        -0.1369
       9    H6      21.335855   18.321313   21.357870 H          1 MOL1         0.0997
      10    H7      19.799341   17.597995   20.930006 H          1 MOL1         0.0997
      11    C3      19.648943   19.697451   21.480726 C.3        1 MOL1        -0.1329
      12    H8      18.559896   19.627207   21.604214 H          1 MOL1         0.0997
      13    H9      19.809044   20.041178   20.449504 H          1 MOL1         0.0997
      14    C4      20.197284   20.766935   22.459786 C.3        1 MOL1        -0.1305
      15    H10     19.671920   21.714281   22.274368 H          1 MOL1         0.0997
      16    H11     19.962272   20.489898   23.496376 H          1 MOL1         0.0997
      17    C5      21.717821   21.005298   22.318398 C.3        1 MOL1        -0.2320
      18    H12     21.981927   21.267975   21.285823 H          1 MOL1         0.1008
      19    H13     22.039714   21.830137   22.967174 H          1 MOL1         0.1008
      20    H14     22.293232   20.116307   22.605103 H          1 MOL1         0.1008
@<TRIPOS>BOND
    1     1     2    1
    2     1     3    1
    3     1     4    1
    4     1     5    1
    5     5     6    1
    6     5     7    1
    7     5     8    1
    8     8     9    1
    9     8    10    1
   10     8    11    1
   11    11    12    1
   12    11    13    1
   13    11    14    1
   14    14    15    1
   15    14    16    1
   16    14    17    1
   17    17    18    1
   18    17    19    1
   19    17    20    1
@<TRIPOS>SUBSTRUCTURE
       1 MOL1            1 RESIDUE      1      MOL     
@<SCITEGIC>MOL_PROPERTY
VConf Rank
SciTegic.value.IntegerValue
219

@<SCITEGIC>MOL_PROPERTY
Conf_Id
SciTegic.value.IntegerValue
2

@<SCITEGIC>MOL_PROPERTY
Delta U+W
SciTegic.value.DoubleValue
0.994

@<SCITEGIC>MOL_PROPERTY
U+W
SciTegic.value.DoubleValue
-10.784

@<SCITEGIC>MOL_PROPERTY
Grad RMS
SciTegic.value.DoubleValue
0.000000

@<SCITEGIC>MOL_PROPERTY
U
SciTegic.value.DoubleValue
47.562

@<SCITEGIC>MOL_PROPERTY
W
SciTegic.value.DoubleValue
-58.346

@<SCITEGIC>MOL_PROPERTY
W(PB)
SciTegic.value.DoubleValue
-60.221

@<SCITEGIC>MOL_PROPERTY
W(SA)
SciTegic.value.DoubleValue
1.875

@<SCITEGIC>MOL_PROPERTY
Valence
SciTegic.value.DoubleValue
2.149

@<SCITEGIC>MOL_PROPERTY
Coulomb
SciTegic.value.DoubleValue
45.034

@<SCITEGIC>MOL_PROPERTY
VdW
SciTegic.value.DoubleValue
0.378

@<SCITEGIC>MOL_PROPERTY
VdW6
SciTegic.value.DoubleValue
-5.599

@<SCITEGIC>MOL_PROPERTY
VdW12
SciTegic.value.DoubleValue
5.977

@<SCITEGIC>MOL_PROPERTY
Bond
SciTegic.value.DoubleValue
0.185

@<SCITEGIC>MOL_PROPERTY
Angle
SciTegic.value.DoubleValue
0.935

@<SCITEGIC>MOL_PROPERTY
Pdih
SciTegic.value.DoubleValue
1.028

@<SCITEGIC>MOL_PROPERTY
Idih
SciTegic.value.DoubleValue
0.000

@<SCITEGIC>MOL_PROPERTY
Tether
SciTegic.value.DoubleValue
0.000

@<TRIPOS>MOLECULE
guest-s11_confgen4.mol2 : confsearch ligand conformer 220
          20          19           1
SMALL
USER_CHARGES
 
@<TRIPOS>ATOM
       1    N1      19.151372   20.507091   24.131470 N.4        1 MOL1        -0.5919
       2    H1      18.128498   20.498780   24.192278 H          1 MOL1         0.3682
       3    H2      19.490145   19.670881   24.616161 H          1 MOL1         0.3682
       4    H3      19.475669   21.318074   24.668543 H          1 MOL1         0.3682
       5    C1      19.630294   20.554890   22.693643 C.3        1 MOL1         0.0252
       6    H4      20.722664   20.595091   22.700363 H          1 MOL1         0.0971
       7    H5      19.259648   21.482887   22.249852 H          1 MOL1         0.0971
       8    C2      19.159470   19.357395   21.843575 C.3        1 MOL1        -0.1369
       9    H6      18.061870   19.346240   21.815484 H          1 MOL1         0.0997
      10    H7      19.483733   19.510631   20.806316 H          1 MOL1         0.0997
      11    C3      19.671101   17.983636   22.351524 C.3        1 MOL1        -0.1329
      12    H8      19.315225   17.199560   21.669046 H          1 MOL1         0.0997
      13    H9      19.211380   17.761500   23.323902 H          1 MOL1         0.0997
      14    C4      21.211346   17.873123   22.487429 C.3        1 MOL1        -0.1305
      15    H10     21.578988   18.584915   23.238886 H          1 MOL1         0.0997
      16    H11     21.458592   16.873827   22.872299 H          1 MOL1         0.0997
      17    C5      21.961702   18.092471   21.154128 C.3        1 MOL1        -0.2320
      18    H12     21.837602   19.118550   20.786212 H          1 MOL1         0.1008
      19    H13     23.037284   17.916549   21.284742 H          1 MOL1         0.1008
      20    H14     21.600629   17.403185   20.379872 H          1 MOL1         0.1008
@<TRIPOS>BOND
    1     1     2    1
    2     1     3    1
    3     1     4    1
    4     1     5    1
    5     5     6    1
    6     5     7    1
    7     5     8    1
    8     8     9    1
    9     8    10    1
   10     8    11    1
   11    11    12    1
   12    11    13    1
   13    11    14    1
   14    14    15    1
   15    14    16    1
   16    14    17    1
   17    17    18    1
   18    17    19    1
   19    17    20    1
@<TRIPOS>SUBSTRUCTURE
       1 MOL1            1 RESIDUE      1      MOL     
@<SCITEGIC>MOL_PROPERTY
VConf Rank
SciTegic.value.IntegerValue
220

@<SCITEGIC>MOL_PROPERTY
Conf_Id
SciTegic.value.IntegerValue
1

@<SCITEGIC>MOL_PROPERTY
Delta U+W
SciTegic.value.DoubleValue
1.032

@<SCITEGIC>MOL_PROPERTY
U+W
SciTegic.value.DoubleValue
-10.746

@<SCITEGIC>MOL_PROPERTY
Grad RMS
SciTegic.value.DoubleValue
0.000000

@<SCITEGIC>MOL_PROPERTY
U
SciTegic.value.DoubleValue
47.562

@<SCITEGIC>MOL_PROPERTY
W
SciTegic.value.DoubleValue
-58.308

@<SCITEGIC>MOL_PROPERTY
W(PB)
SciTegic.value.DoubleValue
-60.184

@<SCITEGIC>MOL_PROPERTY
W(SA)
SciTegic.value.DoubleValue
1.877

@<SCITEGIC>MOL_PROPERTY
Valence
SciTegic.value.DoubleValue
2.149

@<SCITEGIC>MOL_PROPERTY
Coulomb
SciTegic.value.DoubleValue
45.035

@<SCITEGIC>MOL_PROPERTY
VdW
SciTegic.value.DoubleValue
0.378

@<SCITEGIC>MOL_PROPERTY
VdW6
SciTegic.value.DoubleValue
-5.599

@<SCITEGIC>MOL_PROPERTY
VdW12
SciTegic.value.DoubleValue
5.978

@<SCITEGIC>MOL_PROPERTY
Bond
SciTegic.value.DoubleValue
0.185

@<SCITEGIC>MOL_PROPERTY
Angle
SciTegic.value.DoubleValue
0.935

@<SCITEGIC>MOL_PROPERTY
Pdih
SciTegic.value.DoubleValue
1.028

@<SCITEGIC>MOL_PROPERTY
Idih
SciTegic.value.DoubleValue
0.000

@<SCITEGIC>MOL_PROPERTY
Tether
SciTegic.value.DoubleValue
0.000

@<TRIPOS>MOLECULE
guest-s11_confgen4.mol2 : confsearch ligand conformer 221
          20          19           1
SMALL
USER_CHARGES
 
@<TRIPOS>ATOM
       1    N1      18.518964   17.743698   23.271319 N.4        1 MOL1        -0.5919
       2    H1      18.762611   16.913465   23.820355 H          1 MOL1         0.3682
       3    H2      18.591297   18.551860   23.896080 H          1 MOL1         0.3682
       4    H3      17.530626   17.651539   23.014339 H          1 MOL1         0.3682
       5    C1      19.406408   17.893677   22.050784 C.3        1 MOL1         0.0252
       6    H4      19.073549   18.774357   21.499305 H          1 MOL1         0.0971
       7    H5      19.242884   17.018288   21.416372 H          1 MOL1         0.0971
       8    C2      20.909864   18.003979   22.382699 C.3        1 MOL1        -0.1369
       9    H6      21.201276   17.106332   22.944062 H          1 MOL1         0.0997
      10    H7      21.490747   17.977348   21.451310 H          1 MOL1         0.0997
      11    C3      21.303091   19.260323   23.205677 C.3        1 MOL1        -0.1329
      12    H8      22.244533   19.039477   23.727538 H          1 MOL1         0.0997
      13    H9      20.567713   19.450150   23.998084 H          1 MOL1         0.0997
      14    C4      21.527285   20.548001   22.371618 C.3        1 MOL1        -0.1305
      15    H10     21.888496   21.336752   23.046411 H          1 MOL1         0.0997
      16    H11     22.332522   20.381818   21.642400 H          1 MOL1         0.0997
      17    C5      20.270235   21.067091   21.639292 C.3        1 MOL1        -0.2320
      18    H12     19.411710   21.135629   22.319731 H          1 MOL1         0.1008
      19    H13     20.453566   22.068732   21.229372 H          1 MOL1         0.1008
      20    H14     20.001912   20.418243   20.797240 H          1 MOL1         0.1008
@<TRIPOS>BOND
    1     1     2    1
    2     1     3    1
    3     1     4    1
    4     1     5    1
    5     5     6    1
    6     5     7    1
    7     5     8    1
    8     8     9    1
    9     8    10    1
   10     8    11    1
   11    11    12    1
   12    11    13    1
   13    11    14    1
   14    14    15    1
   15    14    16    1
   16    14    17    1
   17    17    18    1
   18    17    19    1
   19    17    20    1
@<TRIPOS>SUBSTRUCTURE
       1 MOL1            1 RESIDUE      1      MOL     
@<SCITEGIC>MOL_PROPERTY
VConf Rank
SciTegic.value.IntegerValue
221

@<SCITEGIC>MOL_PROPERTY
Conf_Id
SciTegic.value.IntegerValue
80

@<SCITEGIC>MOL_PROPERTY
Delta U+W
SciTegic.value.DoubleValue
2.920

@<SCITEGIC>MOL_PROPERTY
U+W
SciTegic.value.DoubleValue
-8.857

@<SCITEGIC>MOL_PROPERTY
Grad RMS
SciTegic.value.DoubleValue
0.000000

@<SCITEGIC>MOL_PROPERTY
U
SciTegic.value.DoubleValue
49.434

@<SCITEGIC>MOL_PROPERTY
W
SciTegic.value.DoubleValue
-58.292

@<SCITEGIC>MOL_PROPERTY
W(PB)
SciTegic.value.DoubleValue
-60.170

@<SCITEGIC>MOL_PROPERTY
W(SA)
SciTegic.value.DoubleValue
1.879

@<SCITEGIC>MOL_PROPERTY
Valence
SciTegic.value.DoubleValue
3.798

@<SCITEGIC>MOL_PROPERTY
Coulomb
SciTegic.value.DoubleValue
45.253

@<SCITEGIC>MOL_PROPERTY
VdW
SciTegic.value.DoubleValue
0.384

@<SCITEGIC>MOL_PROPERTY
VdW6
SciTegic.value.DoubleValue
-5.595

@<SCITEGIC>MOL_PROPERTY
VdW12
SciTegic.value.DoubleValue
5.979

@<SCITEGIC>MOL_PROPERTY
Bond
SciTegic.value.DoubleValue
0.198

@<SCITEGIC>MOL_PROPERTY
Angle
SciTegic.value.DoubleValue
1.368

@<SCITEGIC>MOL_PROPERTY
Pdih
SciTegic.value.DoubleValue
2.231

@<SCITEGIC>MOL_PROPERTY
Idih
SciTegic.value.DoubleValue
0.000

@<SCITEGIC>MOL_PROPERTY
Tether
SciTegic.value.DoubleValue
0.000

@<TRIPOS>MOLECULE
guest-s11_confgen4.mol2 : confsearch ligand conformer 222
          20          19           1
SMALL
USER_CHARGES
 
@<TRIPOS>ATOM
       1    N1      22.288771   18.284787   21.995981 N.4        1 MOL1        -0.5919
       2    H1      23.056117   18.422420   22.661058 H          1 MOL1         0.3682
       3    H2      22.593423   17.562798   21.334721 H          1 MOL1         0.3682
       4    H3      22.189230   19.154312   21.464282 H          1 MOL1         0.3682
       5    C1      20.998686   17.900365   22.694307 C.3        1 MOL1         0.0252
       6    H4      21.171280   16.947194   23.201454 H          1 MOL1         0.0971
       7    H5      20.237238   17.740162   21.929422 H          1 MOL1         0.0971
       8    C2      20.513688   18.941427   23.725663 C.3        1 MOL1        -0.1369
       9    H6      19.655517   18.534740   24.276812 H          1 MOL1         0.0997
      10    H7      21.309650   19.080229   24.469301 H          1 MOL1         0.0997
      11    C3      20.139763   20.324075   23.126672 C.3        1 MOL1        -0.1329
      12    H8      20.871873   20.628194   22.367563 H          1 MOL1         0.0997
      13    H9      20.222307   21.071281   23.928105 H          1 MOL1         0.0997
      14    C4      18.704690   20.422683   22.547980 C.3        1 MOL1        -0.1305
      15    H10     17.970954   20.210544   23.338178 H          1 MOL1         0.0997
      16    H11     18.527487   21.463415   22.242328 H          1 MOL1         0.0997
      17    C5      18.435034   19.503252   21.336428 C.3        1 MOL1        -0.2320
      18    H12     18.375369   18.451083   21.638807 H          1 MOL1         0.1008
      19    H13     17.475639   19.759611   20.868700 H          1 MOL1         0.1008
      20    H14     19.217812   19.607675   20.574119 H          1 MOL1         0.1008
@<TRIPOS>BOND
    1     1     2    1
    2     1     3    1
    3     1     4    1
    4     1     5    1
    5     5     6    1
    6     5     7    1
    7     5     8    1
    8     8     9    1
    9     8    10    1
   10     8    11    1
   11    11    12    1
   12    11    13    1
   13    11    14    1
   14    14    15    1
   15    14    16    1
   16    14    17    1
   17    17    18    1
   18    17    19    1
   19    17    20    1
@<TRIPOS>SUBSTRUCTURE
       1 MOL1            1 RESIDUE      1      MOL     
@<SCITEGIC>MOL_PROPERTY
VConf Rank
SciTegic.value.IntegerValue
222

@<SCITEGIC>MOL_PROPERTY
Conf_Id
SciTegic.value.IntegerValue
65

@<SCITEGIC>MOL_PROPERTY
Delta U+W
SciTegic.value.DoubleValue
2.949

@<SCITEGIC>MOL_PROPERTY
U+W
SciTegic.value.DoubleValue
-8.829

@<SCITEGIC>MOL_PROPERTY
Grad RMS
SciTegic.value.DoubleValue
0.000000

@<SCITEGIC>MOL_PROPERTY
U
SciTegic.value.DoubleValue
49.435

@<SCITEGIC>MOL_PROPERTY
W
SciTegic.value.DoubleValue
-58.263

@<SCITEGIC>MOL_PROPERTY
W(PB)
SciTegic.value.DoubleValue
-60.125

@<SCITEGIC>MOL_PROPERTY
W(SA)
SciTegic.value.DoubleValue
1.862

@<SCITEGIC>MOL_PROPERTY
Valence
SciTegic.value.DoubleValue
3.797

@<SCITEGIC>MOL_PROPERTY
Coulomb
SciTegic.value.DoubleValue
45.253

@<SCITEGIC>MOL_PROPERTY
VdW
SciTegic.value.DoubleValue
0.384

@<SCITEGIC>MOL_PROPERTY
VdW6
SciTegic.value.DoubleValue
-5.596

@<SCITEGIC>MOL_PROPERTY
VdW12
SciTegic.value.DoubleValue
5.980

@<SCITEGIC>MOL_PROPERTY
Bond
SciTegic.value.DoubleValue
0.198

@<SCITEGIC>MOL_PROPERTY
Angle
SciTegic.value.DoubleValue
1.369

@<SCITEGIC>MOL_PROPERTY
Pdih
SciTegic.value.DoubleValue
2.230

@<SCITEGIC>MOL_PROPERTY
Idih
SciTegic.value.DoubleValue
0.000

@<SCITEGIC>MOL_PROPERTY
Tether
SciTegic.value.DoubleValue
0.000

@<TRIPOS>MOLECULE
guest-s11_confgen4.mol2 : confsearch ligand conformer 223
          20          19           1
SMALL
USER_CHARGES
 
@<TRIPOS>ATOM
       1    N1      19.928985   21.178212   22.718593 N.4        1 MOL1        -0.5919
       2    H1      20.431622   22.031662   22.452771 H          1 MOL1         0.3682
       3    H2      19.630050   20.717331   21.853751 H          1 MOL1         0.3682
       4    H3      19.082459   21.473393   23.215250 H          1 MOL1         0.3682
       5    C1      20.787210   20.259599   23.566623 C.3        1 MOL1         0.0252
       6    H4      21.062128   20.818667   24.465169 H          1 MOL1         0.0971
       7    H5      21.703691   20.029307   23.016869 H          1 MOL1         0.0971
       8    C2      20.083418   18.952034   23.982986 C.3        1 MOL1        -0.1369
       9    H6      20.582464   18.577811   24.886712 H          1 MOL1         0.0997
      10    H7      19.048238   19.165512   24.280710 H          1 MOL1         0.0997
      11    C3      20.112625   17.818669   22.922566 C.3        1 MOL1        -0.1329
      12    H8      19.629296   16.938727   23.369355 H          1 MOL1         0.0997
      13    H9      21.150536   17.515257   22.727249 H          1 MOL1         0.0997
      14    C4      19.391177   18.136104   21.587924 C.3        1 MOL1        -0.1305
      15    H10     18.915862   17.215941   21.219639 H          1 MOL1         0.0997
      16    H11     18.569822   18.845997   21.754329 H          1 MOL1         0.0997
      17    C5      20.349393   18.646603   20.485640 C.3        1 MOL1        -0.2320
      18    H12     20.919836   19.527001   20.800424 H          1 MOL1         0.1008
      19    H13     21.072561   17.867289   20.211746 H          1 MOL1         0.1008
      20    H14     19.790054   18.911102   19.578798 H          1 MOL1         0.1008
@<TRIPOS>BOND
    1     1     2    1
    2     1     3    1
    3     1     4    1
    4     1     5    1
    5     5     6    1
    6     5     7    1
    7     5     8    1
    8     8     9    1
    9     8    10    1
   10     8    11    1
   11    11    12    1
   12    11    13    1
   13    11    14    1
   14    14    15    1
   15    14    16    1
   16    14    17    1
   17    17    18    1
   18    17    19    1
   19    17    20    1
@<TRIPOS>SUBSTRUCTURE
       1 MOL1            1 RESIDUE      1      MOL     
@<SCITEGIC>MOL_PROPERTY
VConf Rank
SciTegic.value.IntegerValue
223

@<SCITEGIC>MOL_PROPERTY
Conf_Id
SciTegic.value.IntegerValue
77

@<SCITEGIC>MOL_PROPERTY
Delta U+W
SciTegic.value.DoubleValue
5.366

@<SCITEGIC>MOL_PROPERTY
U+W
SciTegic.value.DoubleValue
-6.412

@<SCITEGIC>MOL_PROPERTY
Grad RMS
SciTegic.value.DoubleValue
0.000000

@<SCITEGIC>MOL_PROPERTY
U
SciTegic.value.DoubleValue
51.542

@<SCITEGIC>MOL_PROPERTY
W
SciTegic.value.DoubleValue
-57.954

@<SCITEGIC>MOL_PROPERTY
W(PB)
SciTegic.value.DoubleValue
-59.811

@<SCITEGIC>MOL_PROPERTY
W(SA)
SciTegic.value.DoubleValue
1.857

@<SCITEGIC>MOL_PROPERTY
Valence
SciTegic.value.DoubleValue
5.347

@<SCITEGIC>MOL_PROPERTY
Coulomb
SciTegic.value.DoubleValue
45.870

@<SCITEGIC>MOL_PROPERTY
VdW
SciTegic.value.DoubleValue
0.325

@<SCITEGIC>MOL_PROPERTY
VdW6
SciTegic.value.DoubleValue
-6.161

@<SCITEGIC>MOL_PROPERTY
VdW12
SciTegic.value.DoubleValue
6.486

@<SCITEGIC>MOL_PROPERTY
Bond
SciTegic.value.DoubleValue
0.201

@<SCITEGIC>MOL_PROPERTY
Angle
SciTegic.value.DoubleValue
1.484

@<SCITEGIC>MOL_PROPERTY
Pdih
SciTegic.value.DoubleValue
3.662

@<SCITEGIC>MOL_PROPERTY
Idih
SciTegic.value.DoubleValue
0.000

@<SCITEGIC>MOL_PROPERTY
Tether
SciTegic.value.DoubleValue
0.000

@<TRIPOS>MOLECULE
guest-s11_confgen4.mol2 : confsearch ligand conformer 224
          20          19           1
SMALL
USER_CHARGES
 
@<TRIPOS>ATOM
       1    N1      20.281538   17.059990   22.449164 N.4        1 MOL1        -0.5919
       2    H1      20.961838   16.647977   23.095573 H          1 MOL1         0.3682
       3    H2      19.598193   17.574694   23.012942 H          1 MOL1         0.3682
       4    H3      19.785559   16.281569   22.002233 H          1 MOL1         0.3682
       5    C1      20.949332   17.962400   21.429719 C.3        1 MOL1         0.0252
       6    H4      20.190973   18.321059   20.728679 H          1 MOL1         0.0971
       7    H5      21.660200   17.345055   20.873776 H          1 MOL1         0.0971
       8    C2      21.698878   19.159759   22.048526 C.3        1 MOL1        -0.1369
       9    H6      22.253452   18.831883   22.937769 H          1 MOL1         0.0997
      10    H7      22.459119   19.486505   21.326666 H          1 MOL1         0.0997
      11    C3      20.813848   20.387957   22.392203 C.3        1 MOL1        -0.1329
      12    H8      20.366433   20.795498   21.475037 H          1 MOL1         0.0997
      13    H9      21.479486   21.176901   22.769060 H          1 MOL1         0.0997
      14    C4      19.713938   20.140022   23.455803 C.3        1 MOL1        -0.1305
      15    H10     20.024620   19.350518   24.153243 H          1 MOL1         0.0997
      16    H11     19.606691   21.047727   24.066401 H          1 MOL1         0.0997
      17    C5      18.332002   19.820450   22.837785 C.3        1 MOL1        -0.2320
      18    H12     17.598734   19.597825   23.623875 H          1 MOL1         0.1008
      19    H13     17.955298   20.680775   22.269227 H          1 MOL1         0.1008
      20    H14     18.365740   18.965305   22.154277 H          1 MOL1         0.1008
@<TRIPOS>BOND
    1     1     2    1
    2     1     3    1
    3     1     4    1
    4     1     5    1
    5     5     6    1
    6     5     7    1
    7     5     8    1
    8     8     9    1
    9     8    10    1
   10     8    11    1
   11    11    12    1
   12    11    13    1
   13    11    14    1
   14    14    15    1
   15    14    16    1
   16    14    17    1
   17    17    18    1
   18    17    19    1
   19    17    20    1
@<TRIPOS>SUBSTRUCTURE
       1 MOL1            1 RESIDUE      1      MOL     
@<SCITEGIC>MOL_PROPERTY
VConf Rank
SciTegic.value.IntegerValue
224

@<SCITEGIC>MOL_PROPERTY
Conf_Id
SciTegic.value.IntegerValue
67

@<SCITEGIC>MOL_PROPERTY
Delta U+W
SciTegic.value.DoubleValue
5.353

@<SCITEGIC>MOL_PROPERTY
U+W
SciTegic.value.DoubleValue
-6.425

@<SCITEGIC>MOL_PROPERTY
Grad RMS
SciTegic.value.DoubleValue
0.000000

@<SCITEGIC>MOL_PROPERTY
U
SciTegic.value.DoubleValue
51.541

@<SCITEGIC>MOL_PROPERTY
W
SciTegic.value.DoubleValue
-57.966

@<SCITEGIC>MOL_PROPERTY
W(PB)
SciTegic.value.DoubleValue
-59.821

@<SCITEGIC>MOL_PROPERTY
W(SA)
SciTegic.value.DoubleValue
1.855

@<SCITEGIC>MOL_PROPERTY
Valence
SciTegic.value.DoubleValue
5.347

@<SCITEGIC>MOL_PROPERTY
Coulomb
SciTegic.value.DoubleValue
45.870

@<SCITEGIC>MOL_PROPERTY
VdW
SciTegic.value.DoubleValue
0.325

@<SCITEGIC>MOL_PROPERTY
VdW6
SciTegic.value.DoubleValue
-6.161

@<SCITEGIC>MOL_PROPERTY
VdW12
SciTegic.value.DoubleValue
6.486

@<SCITEGIC>MOL_PROPERTY
Bond
SciTegic.value.DoubleValue
0.201

@<SCITEGIC>MOL_PROPERTY
Angle
SciTegic.value.DoubleValue
1.485

@<SCITEGIC>MOL_PROPERTY
Pdih
SciTegic.value.DoubleValue
3.662

@<SCITEGIC>MOL_PROPERTY
Idih
SciTegic.value.DoubleValue
0.000

@<SCITEGIC>MOL_PROPERTY
Tether
SciTegic.value.DoubleValue
0.000

@<TRIPOS>MOLECULE
guest-s11_confgen4.mol2 : confsearch ligand conformer 225
          20          19           1
SMALL
USER_CHARGES
 
@<TRIPOS>ATOM
       1    N1      20.667983   22.193190   21.643395 N.4        1 MOL1        -0.5919
       2    H1      21.368088   22.028782   20.913183 H          1 MOL1         0.3682
       3    H2      20.107417   22.997241   21.341954 H          1 MOL1         0.3682
       4    H3      21.174085   22.483215   22.486090 H          1 MOL1         0.3682
       5    C1      19.809374   20.969293   21.891093 C.3        1 MOL1         0.0252
       6    H4      19.278462   20.736223   20.964094 H          1 MOL1         0.0971
       7    H5      19.070046   21.224665   22.655093 H          1 MOL1         0.0971
       8    C2      20.620985   19.742842   22.345374 C.3        1 MOL1        -0.1369
       9    H6      21.372697   19.499743   21.582551 H          1 MOL1         0.0997
      10    H7      21.165009   19.986489   23.267731 H          1 MOL1         0.0997
      11    C3      19.709737   18.518845   22.586602 C.3        1 MOL1        -0.1329
      12    H8      19.163086   18.281125   21.663319 H          1 MOL1         0.0997
      13    H9      18.955696   18.767249   23.346542 H          1 MOL1         0.0997
      14    C4      20.514066   17.281053   23.043179 C.3        1 MOL1        -0.1305
      15    H10     21.268229   17.027820   22.284787 H          1 MOL1         0.0997
      16    H11     21.060791   17.513830   23.967816 H          1 MOL1         0.0997
      17    C5      19.599601   16.060692   23.282867 C.3        1 MOL1        -0.2320
      18    H12     19.064478   15.781844   22.365751 H          1 MOL1         0.1008
      19    H13     20.188454   15.192460   23.606085 H          1 MOL1         0.1008
      20    H14     18.855510   16.271588   24.062012 H          1 MOL1         0.1008
@<TRIPOS>BOND
    1     1     2    1
    2     1     3    1
    3     1     4    1
    4     1     5    1
    5     5     6    1
    6     5     7    1
    7     5     8    1
    8     8     9    1
    9     8    10    1
   10     8    11    1
   11    11    12    1
   12    11    13    1
   13    11    14    1
   14    14    15    1
   15    14    16    1
   16    14    17    1
   17    17    18    1
   18    17    19    1
   19    17    20    1
@<TRIPOS>SUBSTRUCTURE
       1 MOL1            1 RESIDUE      1      MOL     
@<SCITEGIC>MOL_PROPERTY
VConf Rank
SciTegic.value.IntegerValue
225

@<SCITEGIC>MOL_PROPERTY
Conf_Id
SciTegic.value.IntegerValue
72

@<SCITEGIC>MOL_PROPERTY
Delta U+W
SciTegic.value.DoubleValue
0.000

@<SCITEGIC>MOL_PROPERTY
U+W
SciTegic.value.DoubleValue
-11.778

@<SCITEGIC>MOL_PROPERTY
Grad RMS
SciTegic.value.DoubleValue
0.000000

@<SCITEGIC>MOL_PROPERTY
U
SciTegic.value.DoubleValue
45.772

@<SCITEGIC>MOL_PROPERTY
W
SciTegic.value.DoubleValue
-57.550

@<SCITEGIC>MOL_PROPERTY
W(PB)
SciTegic.value.DoubleValue
-59.511

@<SCITEGIC>MOL_PROPERTY
W(SA)
SciTegic.value.DoubleValue
1.961

@<SCITEGIC>MOL_PROPERTY
Valence
SciTegic.value.DoubleValue
1.299

@<SCITEGIC>MOL_PROPERTY
Coulomb
SciTegic.value.DoubleValue
44.177

@<SCITEGIC>MOL_PROPERTY
VdW
SciTegic.value.DoubleValue
0.297

@<SCITEGIC>MOL_PROPERTY
VdW6
SciTegic.value.DoubleValue
-3.490

@<SCITEGIC>MOL_PROPERTY
VdW12
SciTegic.value.DoubleValue
3.786

@<SCITEGIC>MOL_PROPERTY
Bond
SciTegic.value.DoubleValue
0.096

@<SCITEGIC>MOL_PROPERTY
Angle
SciTegic.value.DoubleValue
0.381

@<SCITEGIC>MOL_PROPERTY
Pdih
SciTegic.value.DoubleValue
0.822

@<SCITEGIC>MOL_PROPERTY
Idih
SciTegic.value.DoubleValue
0.000

@<SCITEGIC>MOL_PROPERTY
Tether
SciTegic.value.DoubleValue
0.000

@<TRIPOS>MOLECULE
guest-s11_confgen4.mol2 : confsearch ligand conformer 226
          20          19           1
SMALL
USER_CHARGES
 
@<TRIPOS>ATOM
       1    N1      22.218669   17.061533   22.718867 N.4        1 MOL1        -0.5919
       2    H1      22.618349   17.519557   23.543976 H          1 MOL1         0.3682
       3    H2      21.616406   16.304226   23.056697 H          1 MOL1         0.3682
       4    H3      22.997035   16.620900   22.217298 H          1 MOL1         0.3682
       5    C1      21.462682   18.037171   21.839556 C.3        1 MOL1         0.0252
       6    H4      21.092541   17.489433   20.968653 H          1 MOL1         0.0971
       7    H5      22.169024   18.796322   21.492749 H          1 MOL1         0.0971
       8    C2      20.285857   18.716839   22.562332 C.3        1 MOL1        -0.1369
       9    H6      19.587257   17.950113   22.922749 H          1 MOL1         0.0997
      10    H7      20.666321   19.248265   23.443751 H          1 MOL1         0.0997
      11    C3      19.542691   19.700689   21.628056 C.3        1 MOL1        -0.1329
      12    H8      19.236643   19.167151   20.717335 H          1 MOL1         0.0997
      13    H9      20.230188   20.494419   21.304129 H          1 MOL1         0.0997
      14    C4      18.286337   20.335353   22.272606 C.3        1 MOL1        -0.1305
      15    H10     17.764141   20.933524   21.512709 H          1 MOL1         0.0997
      16    H11     17.585025   19.545618   22.576507 H          1 MOL1         0.0997
      17    C5      18.607279   21.239963   23.484302 C.3        1 MOL1        -0.2320
      18    H12     19.328919   22.021662   23.213753 H          1 MOL1         0.1008
      19    H13     17.696718   21.735113   23.845767 H          1 MOL1         0.1008
      20    H14     19.021947   20.663044   24.320147 H          1 MOL1         0.1008
@<TRIPOS>BOND
    1     1     2    1
    2     1     3    1
    3     1     4    1
    4     1     5    1
    5     5     6    1
    6     5     7    1
    7     5     8    1
    8     8     9    1
    9     8    10    1
   10     8    11    1
   11    11    12    1
   12    11    13    1
   13    11    14    1
   14    14    15    1
   15    14    16    1
   16    14    17    1
   17    17    18    1
   18    17    19    1
   19    17    20    1
@<TRIPOS>SUBSTRUCTURE
       1 MOL1            1 RESIDUE      1      MOL     
@<SCITEGIC>MOL_PROPERTY
VConf Rank
SciTegic.value.IntegerValue
226

@<SCITEGIC>MOL_PROPERTY
Conf_Id
SciTegic.value.IntegerValue
42

@<SCITEGIC>MOL_PROPERTY
Delta U+W
SciTegic.value.DoubleValue
0.508

@<SCITEGIC>MOL_PROPERTY
U+W
SciTegic.value.DoubleValue
-11.270

@<SCITEGIC>MOL_PROPERTY
Grad RMS
SciTegic.value.DoubleValue
0.000000

@<SCITEGIC>MOL_PROPERTY
U
SciTegic.value.DoubleValue
46.486

@<SCITEGIC>MOL_PROPERTY
W
SciTegic.value.DoubleValue
-57.756

@<SCITEGIC>MOL_PROPERTY
W(PB)
SciTegic.value.DoubleValue
-59.705

@<SCITEGIC>MOL_PROPERTY
W(SA)
SciTegic.value.DoubleValue
1.949

@<SCITEGIC>MOL_PROPERTY
Valence
SciTegic.value.DoubleValue
1.806

@<SCITEGIC>MOL_PROPERTY
Coulomb
SciTegic.value.DoubleValue
44.248

@<SCITEGIC>MOL_PROPERTY
VdW
SciTegic.value.DoubleValue
0.433

@<SCITEGIC>MOL_PROPERTY
VdW6
SciTegic.value.DoubleValue
-4.089

@<SCITEGIC>MOL_PROPERTY
VdW12
SciTegic.value.DoubleValue
4.522

@<SCITEGIC>MOL_PROPERTY
Bond
SciTegic.value.DoubleValue
0.131

@<SCITEGIC>MOL_PROPERTY
Angle
SciTegic.value.DoubleValue
0.628

@<SCITEGIC>MOL_PROPERTY
Pdih
SciTegic.value.DoubleValue
1.047

@<SCITEGIC>MOL_PROPERTY
Idih
SciTegic.value.DoubleValue
0.000

@<SCITEGIC>MOL_PROPERTY
Tether
SciTegic.value.DoubleValue
0.000

@<TRIPOS>MOLECULE
guest-s11_confgen4.mol2 : confsearch ligand conformer 227
          20          19           1
SMALL
USER_CHARGES
 
@<TRIPOS>ATOM
       1    N1      17.600750   17.764678   23.387294 N.4        1 MOL1        -0.5919
       2    H1      16.982411   18.568416   23.238883 H          1 MOL1         0.3682
       3    H2      17.560863   17.192878   22.537713 H          1 MOL1         0.3682
       4    H3      17.186504   17.206278   24.141065 H          1 MOL1         0.3682
       5    C1      19.016790   18.192480   23.716533 C.3        1 MOL1         0.0252
       6    H4      19.609994   17.290691   23.890872 H          1 MOL1         0.0971
       7    H5      18.987738   18.768984   24.645130 H          1 MOL1         0.0971
       8    C2      19.668791   19.034009   22.604780 C.3        1 MOL1        -0.1369
       9    H6      19.676422   18.452759   21.674104 H          1 MOL1         0.0997
      10    H7      19.061420   19.930397   22.422021 H          1 MOL1         0.0997
      11    C3      21.109852   19.449723   22.983806 C.3        1 MOL1        -0.1329
      12    H8      21.729697   18.552848   23.121626 H          1 MOL1         0.0997
      13    H9      21.090226   19.963280   23.955205 H          1 MOL1         0.0997
      14    C4      21.776396   20.385032   21.945737 C.3        1 MOL1        -0.1305
      15    H10     21.171889   21.294561   21.822427 H          1 MOL1         0.0997
      16    H11     22.748208   20.713749   22.340027 H          1 MOL1         0.0997
      17    C5      21.997609   19.717367   20.569212 C.3        1 MOL1        -0.2320
      18    H12     21.045837   19.478827   20.078650 H          1 MOL1         0.1008
      19    H13     22.552894   20.388773   19.901510 H          1 MOL1         0.1008
      20    H14     22.576049   18.789683   20.668324 H          1 MOL1         0.1008
@<TRIPOS>BOND
    1     1     2    1
    2     1     3    1
    3     1     4    1
    4     1     5    1
    5     5     6    1
    6     5     7    1
    7     5     8    1
    8     8     9    1
    9     8    10    1
   10     8    11    1
   11    11    12    1
   12    11    13    1
   13    11    14    1
   14    14    15    1
   15    14    16    1
   16    14    17    1
   17    17    18    1
   18    17    19    1
   19    17    20    1
@<TRIPOS>SUBSTRUCTURE
       1 MOL1            1 RESIDUE      1      MOL     
@<SCITEGIC>MOL_PROPERTY
VConf Rank
SciTegic.value.IntegerValue
227

@<SCITEGIC>MOL_PROPERTY
Conf_Id
SciTegic.value.IntegerValue
41

@<SCITEGIC>MOL_PROPERTY
Delta U+W
SciTegic.value.DoubleValue
0.515

@<SCITEGIC>MOL_PROPERTY
U+W
SciTegic.value.DoubleValue
-11.263

@<SCITEGIC>MOL_PROPERTY
Grad RMS
SciTegic.value.DoubleValue
0.000000

@<SCITEGIC>MOL_PROPERTY
U
SciTegic.value.DoubleValue
46.486

@<SCITEGIC>MOL_PROPERTY
W
SciTegic.value.DoubleValue
-57.749

@<SCITEGIC>MOL_PROPERTY
W(PB)
SciTegic.value.DoubleValue
-59.685

@<SCITEGIC>MOL_PROPERTY
W(SA)
SciTegic.value.DoubleValue
1.936

@<SCITEGIC>MOL_PROPERTY
Valence
SciTegic.value.DoubleValue
1.806

@<SCITEGIC>MOL_PROPERTY
Coulomb
SciTegic.value.DoubleValue
44.248

@<SCITEGIC>MOL_PROPERTY
VdW
SciTegic.value.DoubleValue
0.433

@<SCITEGIC>MOL_PROPERTY
VdW6
SciTegic.value.DoubleValue
-4.089

@<SCITEGIC>MOL_PROPERTY
VdW12
SciTegic.value.DoubleValue
4.522

@<SCITEGIC>MOL_PROPERTY
Bond
SciTegic.value.DoubleValue
0.131

@<SCITEGIC>MOL_PROPERTY
Angle
SciTegic.value.DoubleValue
0.628

@<SCITEGIC>MOL_PROPERTY
Pdih
SciTegic.value.DoubleValue
1.047

@<SCITEGIC>MOL_PROPERTY
Idih
SciTegic.value.DoubleValue
0.000

@<SCITEGIC>MOL_PROPERTY
Tether
SciTegic.value.DoubleValue
0.000

@<TRIPOS>MOLECULE
guest-s11_confgen4.mol2 : confsearch ligand conformer 228
          20          19           1
SMALL
USER_CHARGES
 
@<TRIPOS>ATOM
       1    N1      21.583502   21.079766   23.795906 N.4        1 MOL1        -0.5919
       2    H1      22.463322   21.552891   24.027361 H          1 MOL1         0.3682
       3    H2      21.157630   21.602810   23.025193 H          1 MOL1         0.3682
       4    H3      20.967571   21.182461   24.608481 H          1 MOL1         0.3682
       5    C1      21.805663   19.623322   23.435936 C.3        1 MOL1         0.0252
       6    H4      22.300121   19.144698   24.285660 H          1 MOL1         0.0971
       7    H5      22.486069   19.584305   22.580970 H          1 MOL1         0.0971
       8    C2      20.510122   18.857358   23.103159 C.3        1 MOL1        -0.1369
       9    H6      20.766560   17.798366   22.975159 H          1 MOL1         0.0997
      10    H7      19.821917   18.913107   23.956948 H          1 MOL1         0.0997
      11    C3      19.814109   19.386018   21.823627 C.3        1 MOL1        -0.1329
      12    H8      20.500612   19.305980   20.969358 H          1 MOL1         0.0997
      13    H9      19.592793   20.454842   21.942964 H          1 MOL1         0.0997
      14    C4      18.491060   18.652733   21.493755 C.3        1 MOL1        -0.1305
      15    H10     17.795590   18.741557   22.340098 H          1 MOL1         0.0997
      16    H11     18.009116   19.160300   20.646378 H          1 MOL1         0.0997
      17    C5      18.685221   17.161828   21.134219 C.3        1 MOL1        -0.2320
      18    H12     19.049087   16.583180   21.992145 H          1 MOL1         0.1008
      19    H13     17.733382   16.716366   20.817181 H          1 MOL1         0.1008
      20    H14     19.401084   17.043860   20.310430 H          1 MOL1         0.1008
@<TRIPOS>BOND
    1     1     2    1
    2     1     3    1
    3     1     4    1
    4     1     5    1
    5     5     6    1
    6     5     7    1
    7     5     8    1
    8     8     9    1
    9     8    10    1
   10     8    11    1
   11    11    12    1
   12    11    13    1
   13    11    14    1
   14    14    15    1
   15    14    16    1
   16    14    17    1
   17    17    18    1
   18    17    19    1
   19    17    20    1
@<TRIPOS>SUBSTRUCTURE
       1 MOL1            1 RESIDUE      1      MOL     
@<SCITEGIC>MOL_PROPERTY
VConf Rank
SciTegic.value.IntegerValue
228

@<SCITEGIC>MOL_PROPERTY
Conf_Id
SciTegic.value.IntegerValue
33

@<SCITEGIC>MOL_PROPERTY
Delta U+W
SciTegic.value.DoubleValue
0.703

@<SCITEGIC>MOL_PROPERTY
U+W
SciTegic.value.DoubleValue
-11.075

@<SCITEGIC>MOL_PROPERTY
Grad RMS
SciTegic.value.DoubleValue
0.000000

@<SCITEGIC>MOL_PROPERTY
U
SciTegic.value.DoubleValue
47.080

@<SCITEGIC>MOL_PROPERTY
W
SciTegic.value.DoubleValue
-58.154

@<SCITEGIC>MOL_PROPERTY
W(PB)
SciTegic.value.DoubleValue
-60.053

@<SCITEGIC>MOL_PROPERTY
W(SA)
SciTegic.value.DoubleValue
1.899

@<SCITEGIC>MOL_PROPERTY
Valence
SciTegic.value.DoubleValue
1.943

@<SCITEGIC>MOL_PROPERTY
Coulomb
SciTegic.value.DoubleValue
44.572

@<SCITEGIC>MOL_PROPERTY
VdW
SciTegic.value.DoubleValue
0.565

@<SCITEGIC>MOL_PROPERTY
VdW6
SciTegic.value.DoubleValue
-4.575

@<SCITEGIC>MOL_PROPERTY
VdW12
SciTegic.value.DoubleValue
5.139

@<SCITEGIC>MOL_PROPERTY
Bond
SciTegic.value.DoubleValue
0.158

@<SCITEGIC>MOL_PROPERTY
Angle
SciTegic.value.DoubleValue
0.700

@<SCITEGIC>MOL_PROPERTY
Pdih
SciTegic.value.DoubleValue
1.085

@<SCITEGIC>MOL_PROPERTY
Idih
SciTegic.value.DoubleValue
0.000

@<SCITEGIC>MOL_PROPERTY
Tether
SciTegic.value.DoubleValue
0.000

@<TRIPOS>MOLECULE
guest-s11_confgen4.mol2 : confsearch ligand conformer 229
          20          19           1
SMALL
USER_CHARGES
 
@<TRIPOS>ATOM
       1    N1      19.007337   19.591881   19.986476 N.4        1 MOL1        -0.5919
       2    H1      18.195331   19.769024   19.385838 H          1 MOL1         0.3682
       3    H2      19.811849   20.043311   19.540197 H          1 MOL1         0.3682
       4    H3      19.177637   18.582145   19.967261 H          1 MOL1         0.3682
       5    C1      18.784985   20.100903   21.397723 C.3        1 MOL1         0.0252
       6    H4      17.903257   19.599008   21.805278 H          1 MOL1         0.0971
       7    H5      18.567307   21.170477   21.332701 H          1 MOL1         0.0971
       8    C2      19.987027   19.882129   22.337454 C.3        1 MOL1        -0.1369
       9    H6      20.874926   20.372480   21.916879 H          1 MOL1         0.0997
      10    H7      19.770090   20.386446   23.287302 H          1 MOL1         0.0997
      11    C3      20.279767   18.382537   22.595607 C.3        1 MOL1        -0.1329
      12    H8      20.460214   17.875328   21.638639 H          1 MOL1         0.0997
      13    H9      19.394774   17.903731   23.037196 H          1 MOL1         0.0997
      14    C4      21.506876   18.142213   23.508529 C.3        1 MOL1        -0.1305
      15    H10     21.711456   17.063021   23.546392 H          1 MOL1         0.0997
      16    H11     22.397826   18.607713   23.064251 H          1 MOL1         0.0997
      17    C5      21.313270   18.661745   24.951570 C.3        1 MOL1        -0.2320
      18    H12     20.410489   18.235023   25.407529 H          1 MOL1         0.1008
      19    H13     22.169635   18.381510   25.578512 H          1 MOL1         0.1008
      20    H14     21.229401   19.755109   24.979721 H          1 MOL1         0.1008
@<TRIPOS>BOND
    1     1     2    1
    2     1     3    1
    3     1     4    1
    4     1     5    1
    5     5     6    1
    6     5     7    1
    7     5     8    1
    8     8     9    1
    9     8    10    1
   10     8    11    1
   11    11    12    1
   12    11    13    1
   13    11    14    1
   14    14    15    1
   15    14    16    1
   16    14    17    1
   17    17    18    1
   18    17    19    1
   19    17    20    1
@<TRIPOS>SUBSTRUCTURE
       1 MOL1            1 RESIDUE      1      MOL     
@<SCITEGIC>MOL_PROPERTY
VConf Rank
SciTegic.value.IntegerValue
229

@<SCITEGIC>MOL_PROPERTY
Conf_Id
SciTegic.value.IntegerValue
24

@<SCITEGIC>MOL_PROPERTY
Delta U+W
SciTegic.value.DoubleValue
0.847

@<SCITEGIC>MOL_PROPERTY
U+W
SciTegic.value.DoubleValue
-10.931

@<SCITEGIC>MOL_PROPERTY
Grad RMS
SciTegic.value.DoubleValue
0.000000

@<SCITEGIC>MOL_PROPERTY
U
SciTegic.value.DoubleValue
47.080

@<SCITEGIC>MOL_PROPERTY
W
SciTegic.value.DoubleValue
-58.011

@<SCITEGIC>MOL_PROPERTY
W(PB)
SciTegic.value.DoubleValue
-59.914

@<SCITEGIC>MOL_PROPERTY
W(SA)
SciTegic.value.DoubleValue
1.903

@<SCITEGIC>MOL_PROPERTY
Valence
SciTegic.value.DoubleValue
1.943

@<SCITEGIC>MOL_PROPERTY
Coulomb
SciTegic.value.DoubleValue
44.572

@<SCITEGIC>MOL_PROPERTY
VdW
SciTegic.value.DoubleValue
0.565

@<SCITEGIC>MOL_PROPERTY
VdW6
SciTegic.value.DoubleValue
-4.575

@<SCITEGIC>MOL_PROPERTY
VdW12
SciTegic.value.DoubleValue
5.140

@<SCITEGIC>MOL_PROPERTY
Bond
SciTegic.value.DoubleValue
0.158

@<SCITEGIC>MOL_PROPERTY
Angle
SciTegic.value.DoubleValue
0.700

@<SCITEGIC>MOL_PROPERTY
Pdih
SciTegic.value.DoubleValue
1.085

@<SCITEGIC>MOL_PROPERTY
Idih
SciTegic.value.DoubleValue
0.000

@<SCITEGIC>MOL_PROPERTY
Tether
SciTegic.value.DoubleValue
0.000

@<TRIPOS>MOLECULE
guest-s11_confgen4.mol2 : confsearch ligand conformer 230
          20          19           1
SMALL
USER_CHARGES
 
@<TRIPOS>ATOM
       1    N1      19.168412   20.016369   20.050330 N.4        1 MOL1        -0.5919
       2    H1      19.159472   20.969833   19.673084 H          1 MOL1         0.3682
       3    H2      19.911204   19.509213   19.559134 H          1 MOL1         0.3682
       4    H3      18.279402   19.582660   19.782249 H          1 MOL1         0.3682
       5    C1      19.372991   20.006670   21.551790 C.3        1 MOL1         0.0252
       6    H4      18.565675   20.586880   22.006735 H          1 MOL1         0.0971
       7    H5      20.320110   20.509207   21.764882 H          1 MOL1         0.0971
       8    C2      19.392141   18.587745   22.150882 C.3        1 MOL1        -0.1369
       9    H6      18.453860   18.077613   21.895626 H          1 MOL1         0.0997
      10    H7      20.196422   18.001577   21.688290 H          1 MOL1         0.0997
      11    C3      19.556442   18.589615   23.691336 C.3        1 MOL1        -0.1329
      12    H8      19.549859   17.551602   24.051543 H          1 MOL1         0.0997
      13    H9      18.678185   19.071467   24.142972 H          1 MOL1         0.0997
      14    C4      20.834845   19.297569   24.208743 C.3        1 MOL1        -0.1305
      15    H10     20.809491   20.364611   23.948830 H          1 MOL1         0.0997
      16    H11     20.838377   19.255370   25.306964 H          1 MOL1         0.0997
      17    C5      22.143284   18.665295   23.682221 C.3        1 MOL1        -0.2320
      18    H12     23.015291   19.141183   24.149169 H          1 MOL1         0.1008
      19    H13     22.183672   17.592553   23.911498 H          1 MOL1         0.1008
      20    H14     22.242146   18.789258   22.596636 H          1 MOL1         0.1008
@<TRIPOS>BOND
    1     1     2    1
    2     1     3    1
    3     1     4    1
    4     1     5    1
    5     5     6    1
    6     5     7    1
    7     5     8    1
    8     8     9    1
    9     8    10    1
   10     8    11    1
   11    11    12    1
   12    11    13    1
   13    11    14    1
   14    14    15    1
   15    14    16    1
   16    14    17    1
   17    17    18    1
   18    17    19    1
   19    17    20    1
@<TRIPOS>SUBSTRUCTURE
       1 MOL1            1 RESIDUE      1      MOL     
@<SCITEGIC>MOL_PROPERTY
VConf Rank
SciTegic.value.IntegerValue
230

@<SCITEGIC>MOL_PROPERTY
Conf_Id
SciTegic.value.IntegerValue
64

@<SCITEGIC>MOL_PROPERTY
Delta U+W
SciTegic.value.DoubleValue
0.707

@<SCITEGIC>MOL_PROPERTY
U+W
SciTegic.value.DoubleValue
-11.070

@<SCITEGIC>MOL_PROPERTY
Grad RMS
SciTegic.value.DoubleValue
0.000000

@<SCITEGIC>MOL_PROPERTY
U
SciTegic.value.DoubleValue
47.077

@<SCITEGIC>MOL_PROPERTY
W
SciTegic.value.DoubleValue
-58.148

@<SCITEGIC>MOL_PROPERTY
W(PB)
SciTegic.value.DoubleValue
-60.054

@<SCITEGIC>MOL_PROPERTY
W(SA)
SciTegic.value.DoubleValue
1.906

@<SCITEGIC>MOL_PROPERTY
Valence
SciTegic.value.DoubleValue
2.039

@<SCITEGIC>MOL_PROPERTY
Coulomb
SciTegic.value.DoubleValue
44.655

@<SCITEGIC>MOL_PROPERTY
VdW
SciTegic.value.DoubleValue
0.383

@<SCITEGIC>MOL_PROPERTY
VdW6
SciTegic.value.DoubleValue
-4.912

@<SCITEGIC>MOL_PROPERTY
VdW12
SciTegic.value.DoubleValue
5.295

@<SCITEGIC>MOL_PROPERTY
Bond
SciTegic.value.DoubleValue
0.159

@<SCITEGIC>MOL_PROPERTY
Angle
SciTegic.value.DoubleValue
0.856

@<SCITEGIC>MOL_PROPERTY
Pdih
SciTegic.value.DoubleValue
1.024

@<SCITEGIC>MOL_PROPERTY
Idih
SciTegic.value.DoubleValue
0.000

@<SCITEGIC>MOL_PROPERTY
Tether
SciTegic.value.DoubleValue
0.000

@<TRIPOS>MOLECULE
guest-s11_confgen4.mol2 : confsearch ligand conformer 231
          20          19           1
SMALL
USER_CHARGES
 
@<TRIPOS>ATOM
       1    N1      20.984500   21.644864   21.981867 N.4        1 MOL1        -0.5919
       2    H1      21.608662   22.044857   22.689494 H          1 MOL1         0.3682
       3    H2      21.572134   21.340175   21.199516 H          1 MOL1         0.3682
       4    H3      20.399856   22.411973   21.633696 H          1 MOL1         0.3682
       5    C1      20.150281   20.509392   22.539639 C.3        1 MOL1         0.0252
       6    H4      19.491191   20.154221   21.743122 H          1 MOL1         0.0971
       7    H5      19.530311   20.909916   23.346234 H          1 MOL1         0.0971
       8    C2      20.999148   19.339158   23.071239 C.3        1 MOL1        -0.1369
       9    H6      21.628643   18.942281   22.264592 H          1 MOL1         0.0997
      10    H7      21.686215   19.714746   23.841066 H          1 MOL1         0.0997
      11    C3      20.139617   18.203262   23.680290 C.3        1 MOL1        -0.1329
      12    H8      19.612523   18.589545   24.563721 H          1 MOL1         0.0997
      13    H9      20.805742   17.410919   24.048706 H          1 MOL1         0.0997
      14    C4      19.100673   17.582299   22.711670 C.3        1 MOL1        -0.1305
      15    H10     18.539253   16.806400   23.250809 H          1 MOL1         0.0997
      16    H11     18.360283   18.337351   22.414189 H          1 MOL1         0.0997
      17    C5      19.735534   16.952020   21.451231 C.3        1 MOL1        -0.2320
      18    H12     20.495229   16.207348   21.721977 H          1 MOL1         0.1008
      19    H13     18.970791   16.446746   20.847267 H          1 MOL1         0.1008
      20    H14     20.208631   17.711158   20.815995 H          1 MOL1         0.1008
@<TRIPOS>BOND
    1     1     2    1
    2     1     3    1
    3     1     4    1
    4     1     5    1
    5     5     6    1
    6     5     7    1
    7     5     8    1
    8     8     9    1
    9     8    10    1
   10     8    11    1
   11    11    12    1
   12    11    13    1
   13    11    14    1
   14    14    15    1
   15    14    16    1
   16    14    17    1
   17    17    18    1
   18    17    19    1
   19    17    20    1
@<TRIPOS>SUBSTRUCTURE
       1 MOL1            1 RESIDUE      1      MOL     
@<SCITEGIC>MOL_PROPERTY
VConf Rank
SciTegic.value.IntegerValue
231

@<SCITEGIC>MOL_PROPERTY
Conf_Id
SciTegic.value.IntegerValue
22

@<SCITEGIC>MOL_PROPERTY
Delta U+W
SciTegic.value.DoubleValue
0.731

@<SCITEGIC>MOL_PROPERTY
U+W
SciTegic.value.DoubleValue
-11.047

@<SCITEGIC>MOL_PROPERTY
Grad RMS
SciTegic.value.DoubleValue
0.000000

@<SCITEGIC>MOL_PROPERTY
U
SciTegic.value.DoubleValue
47.078

@<SCITEGIC>MOL_PROPERTY
W
SciTegic.value.DoubleValue
-58.125

@<SCITEGIC>MOL_PROPERTY
W(PB)
SciTegic.value.DoubleValue
-60.031

@<SCITEGIC>MOL_PROPERTY
W(SA)
SciTegic.value.DoubleValue
1.906

@<SCITEGIC>MOL_PROPERTY
Valence
SciTegic.value.DoubleValue
2.039

@<SCITEGIC>MOL_PROPERTY
Coulomb
SciTegic.value.DoubleValue
44.655

@<SCITEGIC>MOL_PROPERTY
VdW
SciTegic.value.DoubleValue
0.383

@<SCITEGIC>MOL_PROPERTY
VdW6
SciTegic.value.DoubleValue
-4.913

@<SCITEGIC>MOL_PROPERTY
VdW12
SciTegic.value.DoubleValue
5.296

@<SCITEGIC>MOL_PROPERTY
Bond
SciTegic.value.DoubleValue
0.159

@<SCITEGIC>MOL_PROPERTY
Angle
SciTegic.value.DoubleValue
0.856

@<SCITEGIC>MOL_PROPERTY
Pdih
SciTegic.value.DoubleValue
1.024

@<SCITEGIC>MOL_PROPERTY
Idih
SciTegic.value.DoubleValue
0.000

@<SCITEGIC>MOL_PROPERTY
Tether
SciTegic.value.DoubleValue
0.000

@<TRIPOS>MOLECULE
guest-s11_confgen4.mol2 : confsearch ligand conformer 232
          20          19           1
SMALL
USER_CHARGES
 
@<TRIPOS>ATOM
       1    N1      22.389939   18.969951   20.891795 N.4        1 MOL1        -0.5919
       2    H1      22.952577   19.773362   21.188957 H          1 MOL1         0.3682
       3    H2      22.939240   18.127812   21.090243 H          1 MOL1         0.3682
       4    H3      22.298609   19.031607   19.872310 H          1 MOL1         0.3682
       5    C1      21.038981   18.939760   21.577805 C.3        1 MOL1         0.0252
       6    H4      20.484690   18.078217   21.195835 H          1 MOL1         0.0971
       7    H5      20.504079   19.849823   21.296853 H          1 MOL1         0.0971
       8    C2      21.141773   18.852955   23.110962 C.3        1 MOL1        -0.1369
       9    H6      21.782638   18.000922   23.374124 H          1 MOL1         0.0997
      10    H7      21.645614   19.749897   23.494923 H          1 MOL1         0.0997
      11    C3      19.776503   18.678122   23.823272 C.3        1 MOL1        -0.1329
      12    H8      19.979008   18.536619   24.894029 H          1 MOL1         0.0997
      13    H9      19.290390   17.751335   23.488447 H          1 MOL1         0.0997
      14    C4      18.803842   19.876837   23.674264 C.3        1 MOL1        -0.1305
      15    H10     18.151243   19.903127   24.558304 H          1 MOL1         0.0997
      16    H11     19.361480   20.823782   23.683072 H          1 MOL1         0.0997
      17    C5      17.899441   19.798465   22.421766 C.3        1 MOL1        -0.2320
      18    H12     18.472319   19.859598   21.490665 H          1 MOL1         0.1008
      19    H13     17.325904   18.862584   22.408166 H          1 MOL1         0.1008
      20    H14     17.180336   20.627836   22.418005 H          1 MOL1         0.1008
@<TRIPOS>BOND
    1     1     2    1
    2     1     3    1
    3     1     4    1
    4     1     5    1
    5     5     6    1
    6     5     7    1
    7     5     8    1
    8     8     9    1
    9     8    10    1
   10     8    11    1
   11    11    12    1
   12    11    13    1
   13    11    14    1
   14    14    15    1
   15    14    16    1
   16    14    17    1
   17    17    18    1
   18    17    19    1
   19    17    20    1
@<TRIPOS>SUBSTRUCTURE
       1 MOL1            1 RESIDUE      1      MOL     
@<SCITEGIC>MOL_PROPERTY
VConf Rank
SciTegic.value.IntegerValue
232

@<SCITEGIC>MOL_PROPERTY
Conf_Id
SciTegic.value.IntegerValue
61

@<SCITEGIC>MOL_PROPERTY
Delta U+W
SciTegic.value.DoubleValue
2.669

@<SCITEGIC>MOL_PROPERTY
U+W
SciTegic.value.DoubleValue
-9.108

@<SCITEGIC>MOL_PROPERTY
Grad RMS
SciTegic.value.DoubleValue
0.000000

@<SCITEGIC>MOL_PROPERTY
U
SciTegic.value.DoubleValue
48.916

@<SCITEGIC>MOL_PROPERTY
W
SciTegic.value.DoubleValue
-58.025

@<SCITEGIC>MOL_PROPERTY
W(PB)
SciTegic.value.DoubleValue
-59.935

@<SCITEGIC>MOL_PROPERTY
W(SA)
SciTegic.value.DoubleValue
1.911

@<SCITEGIC>MOL_PROPERTY
Valence
SciTegic.value.DoubleValue
3.785

@<SCITEGIC>MOL_PROPERTY
Coulomb
SciTegic.value.DoubleValue
44.716

@<SCITEGIC>MOL_PROPERTY
VdW
SciTegic.value.DoubleValue
0.415

@<SCITEGIC>MOL_PROPERTY
VdW6
SciTegic.value.DoubleValue
-4.836

@<SCITEGIC>MOL_PROPERTY
VdW12
SciTegic.value.DoubleValue
5.251

@<SCITEGIC>MOL_PROPERTY
Bond
SciTegic.value.DoubleValue
0.175

@<SCITEGIC>MOL_PROPERTY
Angle
SciTegic.value.DoubleValue
1.195

@<SCITEGIC>MOL_PROPERTY
Pdih
SciTegic.value.DoubleValue
2.415

@<SCITEGIC>MOL_PROPERTY
Idih
SciTegic.value.DoubleValue
0.000

@<SCITEGIC>MOL_PROPERTY
Tether
SciTegic.value.DoubleValue
0.000

@<TRIPOS>MOLECULE
guest-s11_confgen4.mol2 : confsearch ligand conformer 233
          20          19           1
SMALL
USER_CHARGES
 
@<TRIPOS>ATOM
       1    N1      19.893498   18.339124   20.255756 N.4        1 MOL1        -0.5919
       2    H1      19.558384   18.597823   19.321724 H          1 MOL1         0.3682
       3    H2      20.171593   17.353861   20.208600 H          1 MOL1         0.3682
       4    H3      19.092001   18.396771   20.889241 H          1 MOL1         0.3682
       5    C1      21.038276   19.225779   20.707304 C.3        1 MOL1         0.0252
       6    H4      20.703804   20.266399   20.683330 H          1 MOL1         0.0971
       7    H5      21.838617   19.111208   19.971173 H          1 MOL1         0.0971
       8    C2      21.592765   18.885740   22.106729 C.3        1 MOL1        -0.1369
       9    H6      21.675679   17.797139   22.224579 H          1 MOL1         0.0997
      10    H7      22.618809   19.273087   22.162105 H          1 MOL1         0.0997
      11    C3      20.790676   19.497355   23.284163 C.3        1 MOL1        -0.1329
      12    H8      20.767130   20.591189   23.181993 H          1 MOL1         0.0997
      13    H9      21.337392   19.289465   24.214412 H          1 MOL1         0.0997
      14    C4      19.346565   18.961220   23.423495 C.3        1 MOL1        -0.1305
      15    H10     18.739779   19.288832   22.570071 H          1 MOL1         0.0997
      16    H11     19.353649   17.862193   23.418015 H          1 MOL1         0.0997
      17    C5      18.677798   19.460350   24.722201 C.3        1 MOL1        -0.2320
      18    H12     17.651342   19.079286   24.801125 H          1 MOL1         0.1008
      19    H13     19.230934   19.121218   25.607782 H          1 MOL1         0.1008
      20    H14     18.632606   20.556992   24.746752 H          1 MOL1         0.1008
@<TRIPOS>BOND
    1     1     2    1
    2     1     3    1
    3     1     4    1
    4     1     5    1
    5     5     6    1
    6     5     7    1
    7     5     8    1
    8     8     9    1
    9     8    10    1
   10     8    11    1
   11    11    12    1
   12    11    13    1
   13    11    14    1
   14    14    15    1
   15    14    16    1
   16    14    17    1
   17    17    18    1
   18    17    19    1
   19    17    20    1
@<TRIPOS>SUBSTRUCTURE
       1 MOL1            1 RESIDUE      1      MOL     
@<SCITEGIC>MOL_PROPERTY
VConf Rank
SciTegic.value.IntegerValue
233

@<SCITEGIC>MOL_PROPERTY
Conf_Id
SciTegic.value.IntegerValue
69

@<SCITEGIC>MOL_PROPERTY
Delta U+W
SciTegic.value.DoubleValue
2.811

@<SCITEGIC>MOL_PROPERTY
U+W
SciTegic.value.DoubleValue
-8.967

@<SCITEGIC>MOL_PROPERTY
Grad RMS
SciTegic.value.DoubleValue
0.000000

@<SCITEGIC>MOL_PROPERTY
U
SciTegic.value.DoubleValue
49.216

@<SCITEGIC>MOL_PROPERTY
W
SciTegic.value.DoubleValue
-58.183

@<SCITEGIC>MOL_PROPERTY
W(PB)
SciTegic.value.DoubleValue
-60.064

@<SCITEGIC>MOL_PROPERTY
W(SA)
SciTegic.value.DoubleValue
1.881

@<SCITEGIC>MOL_PROPERTY
Valence
SciTegic.value.DoubleValue
2.929

@<SCITEGIC>MOL_PROPERTY
Coulomb
SciTegic.value.DoubleValue
46.006

@<SCITEGIC>MOL_PROPERTY
VdW
SciTegic.value.DoubleValue
0.281

@<SCITEGIC>MOL_PROPERTY
VdW6
SciTegic.value.DoubleValue
-4.909

@<SCITEGIC>MOL_PROPERTY
VdW12
SciTegic.value.DoubleValue
5.190

@<SCITEGIC>MOL_PROPERTY
Bond
SciTegic.value.DoubleValue
0.156

@<SCITEGIC>MOL_PROPERTY
Angle
SciTegic.value.DoubleValue
0.974

@<SCITEGIC>MOL_PROPERTY
Pdih
SciTegic.value.DoubleValue
1.799

@<SCITEGIC>MOL_PROPERTY
Idih
SciTegic.value.DoubleValue
0.000

@<SCITEGIC>MOL_PROPERTY
Tether
SciTegic.value.DoubleValue
0.000

@<TRIPOS>MOLECULE
guest-s11_confgen4.mol2 : confsearch ligand conformer 234
          20          19           1
SMALL
USER_CHARGES
 
@<TRIPOS>ATOM
       1    N1      20.961225   21.274536   22.652527 N.4        1 MOL1        -0.5919
       2    H1      21.476745   20.530785   22.174927 H          1 MOL1         0.3682
       3    H2      20.551689   21.872295   21.927774 H          1 MOL1         0.3682
       4    H3      21.650613   21.845255   23.153193 H          1 MOL1         0.3682
       5    C1      19.904076   20.720921   23.588751 C.3        1 MOL1         0.0252
       6    H4      19.416753   21.578468   24.060650 H          1 MOL1         0.0971
       7    H5      20.400594   20.141569   24.371798 H          1 MOL1         0.0971
       8    C2      18.831476   19.854226   22.896041 C.3        1 MOL1        -0.1369
       9    H6      17.939089   19.853277   23.535975 H          1 MOL1         0.0997
      10    H7      18.523144   20.320718   21.950984 H          1 MOL1         0.0997
      11    C3      19.247692   18.379446   22.660331 C.3        1 MOL1        -0.1329
      12    H8      18.374695   17.835796   22.273292 H          1 MOL1         0.0997
      13    H9      19.496817   17.911086   23.622642 H          1 MOL1         0.0997
      14    C4      20.426862   18.195153   21.676509 C.3        1 MOL1        -0.1305
      15    H10     20.230759   18.751933   20.749425 H          1 MOL1         0.0997
      16    H11     21.348005   18.600839   22.113276 H          1 MOL1         0.0997
      17    C5      20.657585   16.706731   21.338300 C.3        1 MOL1        -0.2320
      18    H12     19.771965   16.267492   20.860839 H          1 MOL1         0.1008
      19    H13     21.502979   16.592480   20.647426 H          1 MOL1         0.1008
      20    H14     20.881310   16.126379   22.242959 H          1 MOL1         0.1008
@<TRIPOS>BOND
    1     1     2    1
    2     1     3    1
    3     1     4    1
    4     1     5    1
    5     5     6    1
    6     5     7    1
    7     5     8    1
    8     8     9    1
    9     8    10    1
   10     8    11    1
   11    11    12    1
   12    11    13    1
   13    11    14    1
   14    14    15    1
   15    14    16    1
   16    14    17    1
   17    17    18    1
   18    17    19    1
   19    17    20    1
@<TRIPOS>SUBSTRUCTURE
       1 MOL1            1 RESIDUE      1      MOL     
@<SCITEGIC>MOL_PROPERTY
VConf Rank
SciTegic.value.IntegerValue
234

@<SCITEGIC>MOL_PROPERTY
Conf_Id
SciTegic.value.IntegerValue
26

@<SCITEGIC>MOL_PROPERTY
Delta U+W
SciTegic.value.DoubleValue
2.809

@<SCITEGIC>MOL_PROPERTY
U+W
SciTegic.value.DoubleValue
-8.969

@<SCITEGIC>MOL_PROPERTY
Grad RMS
SciTegic.value.DoubleValue
0.000000

@<SCITEGIC>MOL_PROPERTY
U
SciTegic.value.DoubleValue
49.216

@<SCITEGIC>MOL_PROPERTY
W
SciTegic.value.DoubleValue
-58.185

@<SCITEGIC>MOL_PROPERTY
W(PB)
SciTegic.value.DoubleValue
-60.088

@<SCITEGIC>MOL_PROPERTY
W(SA)
SciTegic.value.DoubleValue
1.903

@<SCITEGIC>MOL_PROPERTY
Valence
SciTegic.value.DoubleValue
2.929

@<SCITEGIC>MOL_PROPERTY
Coulomb
SciTegic.value.DoubleValue
46.006

@<SCITEGIC>MOL_PROPERTY
VdW
SciTegic.value.DoubleValue
0.281

@<SCITEGIC>MOL_PROPERTY
VdW6
SciTegic.value.DoubleValue
-4.909

@<SCITEGIC>MOL_PROPERTY
VdW12
SciTegic.value.DoubleValue
5.190

@<SCITEGIC>MOL_PROPERTY
Bond
SciTegic.value.DoubleValue
0.156

@<SCITEGIC>MOL_PROPERTY
Angle
SciTegic.value.DoubleValue
0.974

@<SCITEGIC>MOL_PROPERTY
Pdih
SciTegic.value.DoubleValue
1.799

@<SCITEGIC>MOL_PROPERTY
Idih
SciTegic.value.DoubleValue
0.000

@<SCITEGIC>MOL_PROPERTY
Tether
SciTegic.value.DoubleValue
0.000

@<TRIPOS>MOLECULE
guest-s11_confgen4.mol2 : confsearch ligand conformer 235
          20          19           1
SMALL
USER_CHARGES
 
@<TRIPOS>ATOM
       1    N1      18.623911   17.320831   22.070597 N.4        1 MOL1        -0.5919
       2    H1      19.576758   16.965056   21.950406 H          1 MOL1         0.3682
       3    H2      18.228662   16.855800   22.893738 H          1 MOL1         0.3682
       4    H3      18.080733   17.005510   21.260141 H          1 MOL1         0.3682
       5    C1      18.602225   18.830390   22.211174 C.3        1 MOL1         0.0252
       6    H4      17.558054   19.141258   22.303785 H          1 MOL1         0.0971
       7    H5      19.004409   19.263253   21.291495 H          1 MOL1         0.0971
       8    C2      19.400673   19.351350   23.423351 C.3        1 MOL1        -0.1369
       9    H6      19.268621   20.438652   23.493121 H          1 MOL1         0.0997
      10    H7      18.967467   18.937583   24.343551 H          1 MOL1         0.0997
      11    C3      20.913910   19.012663   23.374350 C.3        1 MOL1        -0.1329
      12    H8      21.046543   17.926594   23.469582 H          1 MOL1         0.0997
      13    H9      21.402669   19.449684   24.256012 H          1 MOL1         0.0997
      14    C4      21.647942   19.498100   22.098193 C.3        1 MOL1        -0.1305
      15    H10     22.700394   19.187554   22.159491 H          1 MOL1         0.0997
      16    H11     21.237626   18.998682   21.210095 H          1 MOL1         0.0997
      17    C5      21.591833   21.030435   21.904169 C.3        1 MOL1        -0.2320
      18    H12     21.981647   21.554619   22.786347 H          1 MOL1         0.1008
      19    H13     22.198358   21.331096   21.040100 H          1 MOL1         0.1008
      20    H14     20.566436   21.376282   21.723745 H          1 MOL1         0.1008
@<TRIPOS>BOND
    1     1     2    1
    2     1     3    1
    3     1     4    1
    4     1     5    1
    5     5     6    1
    6     5     7    1
    7     5     8    1
    8     8     9    1
    9     8    10    1
   10     8    11    1
   11    11    12    1
   12    11    13    1
   13    11    14    1
   14    14    15    1
   15    14    16    1
   16    14    17    1
   17    17    18    1
   18    17    19    1
   19    17    20    1
@<TRIPOS>SUBSTRUCTURE
       1 MOL1            1 RESIDUE      1      MOL     
@<SCITEGIC>MOL_PROPERTY
VConf Rank
SciTegic.value.IntegerValue
235

@<SCITEGIC>MOL_PROPERTY
Conf_Id
SciTegic.value.IntegerValue
2

@<SCITEGIC>MOL_PROPERTY
Delta U+W
SciTegic.value.DoubleValue
0.994

@<SCITEGIC>MOL_PROPERTY
U+W
SciTegic.value.DoubleValue
-10.784

@<SCITEGIC>MOL_PROPERTY
Grad RMS
SciTegic.value.DoubleValue
0.000000

@<SCITEGIC>MOL_PROPERTY
U
SciTegic.value.DoubleValue
47.562

@<SCITEGIC>MOL_PROPERTY
W
SciTegic.value.DoubleValue
-58.346

@<SCITEGIC>MOL_PROPERTY
W(PB)
SciTegic.value.DoubleValue
-60.221

@<SCITEGIC>MOL_PROPERTY
W(SA)
SciTegic.value.DoubleValue
1.875

@<SCITEGIC>MOL_PROPERTY
Valence
SciTegic.value.DoubleValue
2.149

@<SCITEGIC>MOL_PROPERTY
Coulomb
SciTegic.value.DoubleValue
45.034

@<SCITEGIC>MOL_PROPERTY
VdW
SciTegic.value.DoubleValue
0.378

@<SCITEGIC>MOL_PROPERTY
VdW6
SciTegic.value.DoubleValue
-5.599

@<SCITEGIC>MOL_PROPERTY
VdW12
SciTegic.value.DoubleValue
5.977

@<SCITEGIC>MOL_PROPERTY
Bond
SciTegic.value.DoubleValue
0.185

@<SCITEGIC>MOL_PROPERTY
Angle
SciTegic.value.DoubleValue
0.935

@<SCITEGIC>MOL_PROPERTY
Pdih
SciTegic.value.DoubleValue
1.028

@<SCITEGIC>MOL_PROPERTY
Idih
SciTegic.value.DoubleValue
0.000

@<SCITEGIC>MOL_PROPERTY
Tether
SciTegic.value.DoubleValue
0.000

@<TRIPOS>MOLECULE
guest-s11_confgen4.mol2 : confsearch ligand conformer 236
          20          19           1
SMALL
USER_CHARGES
 
@<TRIPOS>ATOM
       1    N1      20.765459   19.222456   20.121609 N.4        1 MOL1        -0.5919
       2    H1      20.104365   18.826376   19.446246 H          1 MOL1         0.3682
       3    H2      20.404029   20.140584   20.396106 H          1 MOL1         0.3682
       4    H3      21.644750   19.383326   19.619338 H          1 MOL1         0.3682
       5    C1      20.958826   18.314325   21.320318 C.3        1 MOL1         0.0252
       6    H4      21.696095   18.776808   21.981739 H          1 MOL1         0.0971
       7    H5      21.373333   17.369347   20.958784 H          1 MOL1         0.0971
       8    C2      19.659615   18.036892   22.103496 C.3        1 MOL1        -0.1369
       9    H6      18.938645   17.541920   21.439536 H          1 MOL1         0.0997
      10    H7      19.875107   17.315482   22.902035 H          1 MOL1         0.0997
      11    C3      19.006255   19.306221   22.710882 C.3        1 MOL1        -0.1329
      12    H8      18.111469   19.008002   23.274463 H          1 MOL1         0.0997
      13    H9      18.644260   19.952227   21.899807 H          1 MOL1         0.0997
      14    C4      19.932879   20.134804   23.637086 C.3        1 MOL1        -0.1305
      15    H10     20.787965   20.525353   23.068936 H          1 MOL1         0.0997
      16    H11     19.378484   21.015328   23.990884 H          1 MOL1         0.0997
      17    C5      20.442409   19.342301   24.862304 C.3        1 MOL1        -0.2320
      18    H12     21.098446   18.515558   24.562784 H          1 MOL1         0.1008
      19    H13     21.018663   19.995499   25.530247 H          1 MOL1         0.1008
      20    H14     19.606157   18.926465   25.439126 H          1 MOL1         0.1008
@<TRIPOS>BOND
    1     1     2    1
    2     1     3    1
    3     1     4    1
    4     1     5    1
    5     5     6    1
    6     5     7    1
    7     5     8    1
    8     8     9    1
    9     8    10    1
   10     8    11    1
   11    11    12    1
   12    11    13    1
   13    11    14    1
   14    14    15    1
   15    14    16    1
   16    14    17    1
   17    17    18    1
   18    17    19    1
   19    17    20    1
@<TRIPOS>SUBSTRUCTURE
       1 MOL1            1 RESIDUE      1      MOL     
@<SCITEGIC>MOL_PROPERTY
VConf Rank
SciTegic.value.IntegerValue
236

@<SCITEGIC>MOL_PROPERTY
Conf_Id
SciTegic.value.IntegerValue
1

@<SCITEGIC>MOL_PROPERTY
Delta U+W
SciTegic.value.DoubleValue
1.032

@<SCITEGIC>MOL_PROPERTY
U+W
SciTegic.value.DoubleValue
-10.746

@<SCITEGIC>MOL_PROPERTY
Grad RMS
SciTegic.value.DoubleValue
0.000000

@<SCITEGIC>MOL_PROPERTY
U
SciTegic.value.DoubleValue
47.562

@<SCITEGIC>MOL_PROPERTY
W
SciTegic.value.DoubleValue
-58.308

@<SCITEGIC>MOL_PROPERTY
W(PB)
SciTegic.value.DoubleValue
-60.184

@<SCITEGIC>MOL_PROPERTY
W(SA)
SciTegic.value.DoubleValue
1.877

@<SCITEGIC>MOL_PROPERTY
Valence
SciTegic.value.DoubleValue
2.149

@<SCITEGIC>MOL_PROPERTY
Coulomb
SciTegic.value.DoubleValue
45.035

@<SCITEGIC>MOL_PROPERTY
VdW
SciTegic.value.DoubleValue
0.378

@<SCITEGIC>MOL_PROPERTY
VdW6
SciTegic.value.DoubleValue
-5.599

@<SCITEGIC>MOL_PROPERTY
VdW12
SciTegic.value.DoubleValue
5.978

@<SCITEGIC>MOL_PROPERTY
Bond
SciTegic.value.DoubleValue
0.185

@<SCITEGIC>MOL_PROPERTY
Angle
SciTegic.value.DoubleValue
0.935

@<SCITEGIC>MOL_PROPERTY
Pdih
SciTegic.value.DoubleValue
1.028

@<SCITEGIC>MOL_PROPERTY
Idih
SciTegic.value.DoubleValue
0.000

@<SCITEGIC>MOL_PROPERTY
Tether
SciTegic.value.DoubleValue
0.000

@<TRIPOS>MOLECULE
guest-s11_confgen4.mol2 : confsearch ligand conformer 237
          20          19           1
SMALL
USER_CHARGES
 
@<TRIPOS>ATOM
       1    N1      19.174428   19.233687   20.409964 N.4        1 MOL1        -0.5919
       2    H1      18.616089   20.063516   20.186958 H          1 MOL1         0.3682
       3    H2      20.158136   19.486441   20.279126 H          1 MOL1         0.3682
       4    H3      18.950838   18.525301   19.703181 H          1 MOL1         0.3682
       5    C1      18.903525   18.732028   21.815207 C.3        1 MOL1         0.0252
       6    H4      19.503899   17.834788   21.973417 H          1 MOL1         0.0971
       7    H5      17.849820   18.444129   21.863622 H          1 MOL1         0.0971
       8    C2      19.194173   19.774148   22.916218 C.3        1 MOL1        -0.1369
       9    H6      18.579857   20.661892   22.715358 H          1 MOL1         0.0997
      10    H7      18.852184   19.385199   23.884403 H          1 MOL1         0.0997
      11    C3      20.681189   20.206900   23.024988 C.3        1 MOL1        -0.1329
      12    H8      20.709489   21.196638   23.501476 H          1 MOL1         0.0997
      13    H9      21.116815   20.350471   22.027821 H          1 MOL1         0.0997
      14    C4      21.580050   19.263053   23.864771 C.3        1 MOL1        -0.1305
      15    H10     22.576834   19.718898   23.945861 H          1 MOL1         0.0997
      16    H11     21.192709   19.198500   24.891212 H          1 MOL1         0.0997
      17    C5      21.737431   17.840120   23.284750 C.3        1 MOL1        -0.2320
      18    H12     22.013789   17.870265   22.222922 H          1 MOL1         0.1008
      19    H13     22.524926   17.294432   23.820478 H          1 MOL1         0.1008
      20    H14     20.813111   17.260354   23.392257 H          1 MOL1         0.1008
@<TRIPOS>BOND
    1     1     2    1
    2     1     3    1
    3     1     4    1
    4     1     5    1
    5     5     6    1
    6     5     7    1
    7     5     8    1
    8     8     9    1
    9     8    10    1
   10     8    11    1
   11    11    12    1
   12    11    13    1
   13    11    14    1
   14    14    15    1
   15    14    16    1
   16    14    17    1
   17    17    18    1
   18    17    19    1
   19    17    20    1
@<TRIPOS>SUBSTRUCTURE
       1 MOL1            1 RESIDUE      1      MOL     
@<SCITEGIC>MOL_PROPERTY
VConf Rank
SciTegic.value.IntegerValue
237

@<SCITEGIC>MOL_PROPERTY
Conf_Id
SciTegic.value.IntegerValue
80

@<SCITEGIC>MOL_PROPERTY
Delta U+W
SciTegic.value.DoubleValue
2.920

@<SCITEGIC>MOL_PROPERTY
U+W
SciTegic.value.DoubleValue
-8.857

@<SCITEGIC>MOL_PROPERTY
Grad RMS
SciTegic.value.DoubleValue
0.000000

@<SCITEGIC>MOL_PROPERTY
U
SciTegic.value.DoubleValue
49.434

@<SCITEGIC>MOL_PROPERTY
W
SciTegic.value.DoubleValue
-58.292

@<SCITEGIC>MOL_PROPERTY
W(PB)
SciTegic.value.DoubleValue
-60.170

@<SCITEGIC>MOL_PROPERTY
W(SA)
SciTegic.value.DoubleValue
1.879

@<SCITEGIC>MOL_PROPERTY
Valence
SciTegic.value.DoubleValue
3.798

@<SCITEGIC>MOL_PROPERTY
Coulomb
SciTegic.value.DoubleValue
45.253

@<SCITEGIC>MOL_PROPERTY
VdW
SciTegic.value.DoubleValue
0.384

@<SCITEGIC>MOL_PROPERTY
VdW6
SciTegic.value.DoubleValue
-5.595

@<SCITEGIC>MOL_PROPERTY
VdW12
SciTegic.value.DoubleValue
5.979

@<SCITEGIC>MOL_PROPERTY
Bond
SciTegic.value.DoubleValue
0.198

@<SCITEGIC>MOL_PROPERTY
Angle
SciTegic.value.DoubleValue
1.368

@<SCITEGIC>MOL_PROPERTY
Pdih
SciTegic.value.DoubleValue
2.231

@<SCITEGIC>MOL_PROPERTY
Idih
SciTegic.value.DoubleValue
0.000

@<SCITEGIC>MOL_PROPERTY
Tether
SciTegic.value.DoubleValue
0.000

@<TRIPOS>MOLECULE
guest-s11_confgen4.mol2 : confsearch ligand conformer 238
          20          19           1
SMALL
USER_CHARGES
 
@<TRIPOS>ATOM
       1    N1      18.849880   17.977052   21.024012 N.4        1 MOL1        -0.5919
       2    H1      18.140520   18.472543   20.475024 H          1 MOL1         0.3682
       3    H2      18.934698   17.037372   20.622573 H          1 MOL1         0.3682
       4    H3      18.476293   17.865016   21.970885 H          1 MOL1         0.3682
       5    C1      20.177067   18.710762   21.024934 C.3        1 MOL1         0.0252
       6    H4      20.529626   18.752951   19.990794 H          1 MOL1         0.0971
       7    H5      20.889726   18.115732   21.598145 H          1 MOL1         0.0971
       8    C2      20.096513   20.144696   21.590683 C.3        1 MOL1        -0.1369
       9    H6      21.058915   20.650602   21.437518 H          1 MOL1         0.0997
      10    H7      19.364396   20.705259   20.994367 H          1 MOL1         0.0997
      11    C3      19.695653   20.230863   23.088085 C.3        1 MOL1        -0.1329
      12    H8      18.887405   19.523483   23.314072 H          1 MOL1         0.0997
      13    H9      19.269314   21.227983   23.265316 H          1 MOL1         0.0997
      14    C4      20.861822   20.040997   24.092098 C.3        1 MOL1        -0.1305
      15    H10     21.625617   20.812968   23.923397 H          1 MOL1         0.0997
      16    H11     20.474946   20.214915   25.106015 H          1 MOL1         0.0997
      17    C5      21.523978   18.646035   24.052644 C.3        1 MOL1        -0.2320
      18    H12     22.120323   18.512448   23.142381 H          1 MOL1         0.1008
      19    H13     22.204141   18.522057   24.905250 H          1 MOL1         0.1008
      20    H14     20.773698   17.846513   24.103686 H          1 MOL1         0.1008
@<TRIPOS>BOND
    1     1     2    1
    2     1     3    1
    3     1     4    1
    4     1     5    1
    5     5     6    1
    6     5     7    1
    7     5     8    1
    8     8     9    1
    9     8    10    1
   10     8    11    1
   11    11    12    1
   12    11    13    1
   13    11    14    1
   14    14    15    1
   15    14    16    1
   16    14    17    1
   17    17    18    1
   18    17    19    1
   19    17    20    1
@<TRIPOS>SUBSTRUCTURE
       1 MOL1            1 RESIDUE      1      MOL     
@<SCITEGIC>MOL_PROPERTY
VConf Rank
SciTegic.value.IntegerValue
238

@<SCITEGIC>MOL_PROPERTY
Conf_Id
SciTegic.value.IntegerValue
65

@<SCITEGIC>MOL_PROPERTY
Delta U+W
SciTegic.value.DoubleValue
2.949

@<SCITEGIC>MOL_PROPERTY
U+W
SciTegic.value.DoubleValue
-8.829

@<SCITEGIC>MOL_PROPERTY
Grad RMS
SciTegic.value.DoubleValue
0.000000

@<SCITEGIC>MOL_PROPERTY
U
SciTegic.value.DoubleValue
49.435

@<SCITEGIC>MOL_PROPERTY
W
SciTegic.value.DoubleValue
-58.263

@<SCITEGIC>MOL_PROPERTY
W(PB)
SciTegic.value.DoubleValue
-60.125

@<SCITEGIC>MOL_PROPERTY
W(SA)
SciTegic.value.DoubleValue
1.862

@<SCITEGIC>MOL_PROPERTY
Valence
SciTegic.value.DoubleValue
3.797

@<SCITEGIC>MOL_PROPERTY
Coulomb
SciTegic.value.DoubleValue
45.253

@<SCITEGIC>MOL_PROPERTY
VdW
SciTegic.value.DoubleValue
0.384

@<SCITEGIC>MOL_PROPERTY
VdW6
SciTegic.value.DoubleValue
-5.596

@<SCITEGIC>MOL_PROPERTY
VdW12
SciTegic.value.DoubleValue
5.980

@<SCITEGIC>MOL_PROPERTY
Bond
SciTegic.value.DoubleValue
0.198

@<SCITEGIC>MOL_PROPERTY
Angle
SciTegic.value.DoubleValue
1.369

@<SCITEGIC>MOL_PROPERTY
Pdih
SciTegic.value.DoubleValue
2.230

@<SCITEGIC>MOL_PROPERTY
Idih
SciTegic.value.DoubleValue
0.000

@<SCITEGIC>MOL_PROPERTY
Tether
SciTegic.value.DoubleValue
0.000

@<TRIPOS>MOLECULE
guest-s11_confgen4.mol2 : confsearch ligand conformer 239
          20          19           1
SMALL
USER_CHARGES
 
@<TRIPOS>ATOM
       1    N1      19.313363   17.478959   22.024938 N.4        1 MOL1        -0.5919
       2    H1      19.293770   16.826198   21.234242 H          1 MOL1         0.3682
       3    H2      20.289945   17.572333   22.320393 H          1 MOL1         0.3682
       4    H3      18.803645   17.031614   22.793363 H          1 MOL1         0.3682
       5    C1      18.714826   18.823787   21.660596 C.3        1 MOL1         0.0252
       6    H4      17.679320   18.641762   21.360406 H          1 MOL1         0.0971
       7    H5      19.252639   19.224791   20.797374 H          1 MOL1         0.0971
       8    C2      18.732247   19.849974   22.811703 C.3        1 MOL1        -0.1369
       9    H6      17.945739   20.589561   22.611132 H          1 MOL1         0.0997
      10    H7      18.447253   19.359106   23.751722 H          1 MOL1         0.0997
      11    C3      20.069064   20.618102   22.992696 C.3        1 MOL1        -0.1329
      12    H8      19.922036   21.346372   23.802344 H          1 MOL1         0.0997
      13    H9      20.281700   21.216178   22.095725 H          1 MOL1         0.0997
      14    C4      21.297007   19.743099   23.351927 C.3        1 MOL1        -0.1305
      15    H10     21.940524   20.308982   24.040345 H          1 MOL1         0.0997
      16    H11     20.982951   18.850055   23.908798 H          1 MOL1         0.0997
      17    C5      22.148757   19.356041   22.119642 C.3        1 MOL1        -0.2320
      18    H12     21.562197   18.846931   21.347405 H          1 MOL1         0.1008
      19    H13     22.591250   20.249657   21.660326 H          1 MOL1         0.1008
      20    H14     22.973193   18.692718   22.412027 H          1 MOL1         0.1008
@<TRIPOS>BOND
    1     1     2    1
    2     1     3    1
    3     1     4    1
    4     1     5    1
    5     5     6    1
    6     5     7    1
    7     5     8    1
    8     8     9    1
    9     8    10    1
   10     8    11    1
   11    11    12    1
   12    11    13    1
   13    11    14    1
   14    14    15    1
   15    14    16    1
   16    14    17    1
   17    17    18    1
   18    17    19    1
   19    17    20    1
@<TRIPOS>SUBSTRUCTURE
       1 MOL1            1 RESIDUE      1      MOL     
@<SCITEGIC>MOL_PROPERTY
VConf Rank
SciTegic.value.IntegerValue
239

@<SCITEGIC>MOL_PROPERTY
Conf_Id
SciTegic.value.IntegerValue
77

@<SCITEGIC>MOL_PROPERTY
Delta U+W
SciTegic.value.DoubleValue
5.366

@<SCITEGIC>MOL_PROPERTY
U+W
SciTegic.value.DoubleValue
-6.412

@<SCITEGIC>MOL_PROPERTY
Grad RMS
SciTegic.value.DoubleValue
0.000000

@<SCITEGIC>MOL_PROPERTY
U
SciTegic.value.DoubleValue
51.542

@<SCITEGIC>MOL_PROPERTY
W
SciTegic.value.DoubleValue
-57.954

@<SCITEGIC>MOL_PROPERTY
W(PB)
SciTegic.value.DoubleValue
-59.811

@<SCITEGIC>MOL_PROPERTY
W(SA)
SciTegic.value.DoubleValue
1.857

@<SCITEGIC>MOL_PROPERTY
Valence
SciTegic.value.DoubleValue
5.347

@<SCITEGIC>MOL_PROPERTY
Coulomb
SciTegic.value.DoubleValue
45.870

@<SCITEGIC>MOL_PROPERTY
VdW
SciTegic.value.DoubleValue
0.325

@<SCITEGIC>MOL_PROPERTY
VdW6
SciTegic.value.DoubleValue
-6.161

@<SCITEGIC>MOL_PROPERTY
VdW12
SciTegic.value.DoubleValue
6.486

@<SCITEGIC>MOL_PROPERTY
Bond
SciTegic.value.DoubleValue
0.201

@<SCITEGIC>MOL_PROPERTY
Angle
SciTegic.value.DoubleValue
1.484

@<SCITEGIC>MOL_PROPERTY
Pdih
SciTegic.value.DoubleValue
3.662

@<SCITEGIC>MOL_PROPERTY
Idih
SciTegic.value.DoubleValue
0.000

@<SCITEGIC>MOL_PROPERTY
Tether
SciTegic.value.DoubleValue
0.000

@<TRIPOS>MOLECULE
guest-s11_confgen4.mol2 : confsearch ligand conformer 240
          20          19           1
SMALL
USER_CHARGES
 
@<TRIPOS>ATOM
       1    N1      18.781633   19.114801   23.819373 N.4        1 MOL1        -0.5919
       2    H1      18.878088   18.447818   24.591536 H          1 MOL1         0.3682
       3    H2      19.597300   19.734162   23.847754 H          1 MOL1         0.3682
       4    H3      17.955211   19.687405   24.021447 H          1 MOL1         0.3682
       5    C1      18.666968   18.412353   22.480351 C.3        1 MOL1         0.0252
       6    H4      18.500880   19.163316   21.703388 H          1 MOL1         0.0971
       7    H5      17.780916   17.773597   22.529584 H          1 MOL1         0.0971
       8    C2      19.891704   17.547295   22.119650 C.3        1 MOL1        -0.1369
       9    H6      20.227022   16.990250   23.004563 H          1 MOL1         0.0997
      10    H7      19.563090   16.788867   21.396732 H          1 MOL1         0.0997
      11    C3      21.082759   18.317598   21.488868 C.3        1 MOL1        -0.1329
      12    H8      20.776340   18.762439   20.531952 H          1 MOL1         0.0997
      13    H9      21.854188   17.577597   21.234266 H          1 MOL1         0.0997
      14    C4      21.732576   19.396046   22.392863 C.3        1 MOL1        -0.1305
      15    H10     21.624390   19.125966   23.451927 H          1 MOL1         0.0997
      16    H11     22.814748   19.408147   22.200469 H          1 MOL1         0.0997
      17    C5      21.189471   20.820069   22.126377 C.3        1 MOL1        -0.2320
      18    H12     21.634955   21.540967   22.824254 H          1 MOL1         0.1008
      19    H13     21.443120   21.145680   21.109046 H          1 MOL1         0.1008
      20    H14     20.100515   20.879495   22.227559 H          1 MOL1         0.1008
@<TRIPOS>BOND
    1     1     2    1
    2     1     3    1
    3     1     4    1
    4     1     5    1
    5     5     6    1
    6     5     7    1
    7     5     8    1
    8     8     9    1
    9     8    10    1
   10     8    11    1
   11    11    12    1
   12    11    13    1
   13    11    14    1
   14    14    15    1
   15    14    16    1
   16    14    17    1
   17    17    18    1
   18    17    19    1
   19    17    20    1
@<TRIPOS>SUBSTRUCTURE
       1 MOL1            1 RESIDUE      1      MOL     
@<SCITEGIC>MOL_PROPERTY
VConf Rank
SciTegic.value.IntegerValue
240

@<SCITEGIC>MOL_PROPERTY
Conf_Id
SciTegic.value.IntegerValue
67

@<SCITEGIC>MOL_PROPERTY
Delta U+W
SciTegic.value.DoubleValue
5.353

@<SCITEGIC>MOL_PROPERTY
U+W
SciTegic.value.DoubleValue
-6.425

@<SCITEGIC>MOL_PROPERTY
Grad RMS
SciTegic.value.DoubleValue
0.000000

@<SCITEGIC>MOL_PROPERTY
U
SciTegic.value.DoubleValue
51.541

@<SCITEGIC>MOL_PROPERTY
W
SciTegic.value.DoubleValue
-57.966

@<SCITEGIC>MOL_PROPERTY
W(PB)
SciTegic.value.DoubleValue
-59.821

@<SCITEGIC>MOL_PROPERTY
W(SA)
SciTegic.value.DoubleValue
1.855

@<SCITEGIC>MOL_PROPERTY
Valence
SciTegic.value.DoubleValue
5.347

@<SCITEGIC>MOL_PROPERTY
Coulomb
SciTegic.value.DoubleValue
45.870

@<SCITEGIC>MOL_PROPERTY
VdW
SciTegic.value.DoubleValue
0.325

@<SCITEGIC>MOL_PROPERTY
VdW6
SciTegic.value.DoubleValue
-6.161

@<SCITEGIC>MOL_PROPERTY
VdW12
SciTegic.value.DoubleValue
6.486

@<SCITEGIC>MOL_PROPERTY
Bond
SciTegic.value.DoubleValue
0.201

@<SCITEGIC>MOL_PROPERTY
Angle
SciTegic.value.DoubleValue
1.485

@<SCITEGIC>MOL_PROPERTY
Pdih
SciTegic.value.DoubleValue
3.662

@<SCITEGIC>MOL_PROPERTY
Idih
SciTegic.value.DoubleValue
0.000

@<SCITEGIC>MOL_PROPERTY
Tether
SciTegic.value.DoubleValue
0.000

@<TRIPOS>MOLECULE
guest-s11_confgen4.mol2 : confsearch ligand conformer 241
          20          19           1
SMALL
USER_CHARGES
 
@<TRIPOS>ATOM
       1    N1      18.472690   17.733980   24.827138 N.4        1 MOL1        -0.5919
       2    H1      17.536775   18.026124   24.528639 H          1 MOL1         0.3682
       3    H2      18.376571   16.796289   25.230989 H          1 MOL1         0.3682
       4    H3      18.754220   18.358279   25.589620 H          1 MOL1         0.3682
       5    C1      19.464984   17.754863   23.681972 C.3        1 MOL1         0.0252
       6    H4      19.119327   17.047842   22.922920 H          1 MOL1         0.0971
       7    H5      20.428113   17.405103   24.063504 H          1 MOL1         0.0971
       8    C2      19.632942   19.149398   23.052428 C.3        1 MOL1        -0.1369
       9    H6      18.660461   19.503455   22.685018 H          1 MOL1         0.0997
      10    H7      19.964740   19.859503   23.821668 H          1 MOL1         0.0997
      11    C3      20.651291   19.127090   21.890877 C.3        1 MOL1        -0.1329
      12    H8      20.318897   18.411799   21.125591 H          1 MOL1         0.0997
      13    H9      21.621642   18.767502   22.260887 H          1 MOL1         0.0997
      14    C4      20.828047   20.522337   21.250892 C.3        1 MOL1        -0.1305
      15    H10     19.859983   20.884951   20.877514 H          1 MOL1         0.0997
      16    H11     21.162635   21.240585   22.012612 H          1 MOL1         0.0997
      17    C5      21.846227   20.495187   20.090913 C.3        1 MOL1        -0.2320
      18    H12     21.521718   19.810629   19.296375 H          1 MOL1         0.1008
      19    H13     21.957955   21.494093   19.649610 H          1 MOL1         0.1008
      20    H14     22.834573   20.169178   20.440349 H          1 MOL1         0.1008
@<TRIPOS>BOND
    1     1     2    1
    2     1     3    1
    3     1     4    1
    4     1     5    1
    5     5     6    1
    6     5     7    1
    7     5     8    1
    8     8     9    1
    9     8    10    1
   10     8    11    1
   11    11    12    1
   12    11    13    1
   13    11    14    1
   14    14    15    1
   15    14    16    1
   16    14    17    1
   17    17    18    1
   18    17    19    1
   19    17    20    1
@<TRIPOS>SUBSTRUCTURE
       1 MOL1            1 RESIDUE      1      MOL     
@<SCITEGIC>MOL_PROPERTY
VConf Rank
SciTegic.value.IntegerValue
241

@<SCITEGIC>MOL_PROPERTY
Conf_Id
SciTegic.value.IntegerValue
72

@<SCITEGIC>MOL_PROPERTY
Delta U+W
SciTegic.value.DoubleValue
0.000

@<SCITEGIC>MOL_PROPERTY
U+W
SciTegic.value.DoubleValue
-11.778

@<SCITEGIC>MOL_PROPERTY
Grad RMS
SciTegic.value.DoubleValue
0.000000

@<SCITEGIC>MOL_PROPERTY
U
SciTegic.value.DoubleValue
45.772

@<SCITEGIC>MOL_PROPERTY
W
SciTegic.value.DoubleValue
-57.550

@<SCITEGIC>MOL_PROPERTY
W(PB)
SciTegic.value.DoubleValue
-59.511

@<SCITEGIC>MOL_PROPERTY
W(SA)
SciTegic.value.DoubleValue
1.961

@<SCITEGIC>MOL_PROPERTY
Valence
SciTegic.value.DoubleValue
1.299

@<SCITEGIC>MOL_PROPERTY
Coulomb
SciTegic.value.DoubleValue
44.177

@<SCITEGIC>MOL_PROPERTY
VdW
SciTegic.value.DoubleValue
0.297

@<SCITEGIC>MOL_PROPERTY
VdW6
SciTegic.value.DoubleValue
-3.490

@<SCITEGIC>MOL_PROPERTY
VdW12
SciTegic.value.DoubleValue
3.786

@<SCITEGIC>MOL_PROPERTY
Bond
SciTegic.value.DoubleValue
0.096

@<SCITEGIC>MOL_PROPERTY
Angle
SciTegic.value.DoubleValue
0.381

@<SCITEGIC>MOL_PROPERTY
Pdih
SciTegic.value.DoubleValue
0.822

@<SCITEGIC>MOL_PROPERTY
Idih
SciTegic.value.DoubleValue
0.000

@<SCITEGIC>MOL_PROPERTY
Tether
SciTegic.value.DoubleValue
0.000

@<TRIPOS>MOLECULE
guest-s11_confgen4.mol2 : confsearch ligand conformer 242
          20          19           1
SMALL
USER_CHARGES
 
@<TRIPOS>ATOM
       1    N1      21.018893   20.516270   19.953370 N.4        1 MOL1        -0.5919
       2    H1      20.087194   20.422304   19.536904 H          1 MOL1         0.3682
       3    H2      21.089423   21.469965   20.321954 H          1 MOL1         0.3682
       4    H3      21.695897   20.443218   19.186616 H          1 MOL1         0.3682
       5    C1      21.268079   19.474669   21.025540 C.3        1 MOL1         0.0252
       6    H4      22.285221   19.614295   21.401599 H          1 MOL1         0.0971
       7    H5      21.207369   18.488004   20.558299 H          1 MOL1         0.0971
       8    C2      20.268491   19.556825   22.193162 C.3        1 MOL1        -0.1369
       9    H6      20.321456   20.554330   22.649220 H          1 MOL1         0.0997
      10    H7      19.250735   19.433216   21.802060 H          1 MOL1         0.0997
      11    C3      20.561450   18.478720   23.263205 C.3        1 MOL1        -0.1329
      12    H8      21.607732   18.570696   23.586585 H          1 MOL1         0.0997
      13    H9      20.463070   17.478901   22.817929 H          1 MOL1         0.0997
      14    C4      19.649791   18.581964   24.510158 C.3        1 MOL1        -0.1305
      15    H10     19.991780   17.853115   25.258330 H          1 MOL1         0.0997
      16    H11     19.763085   19.572461   24.972710 H          1 MOL1         0.0997
      17    C5      18.157571   18.318722   24.204362 C.3        1 MOL1        -0.2320
      18    H12     18.020053   17.345609   23.715327 H          1 MOL1         0.1008
      19    H13     17.570565   18.313535   25.131912 H          1 MOL1         0.1008
      20    H14     17.736174   19.094078   23.552695 H          1 MOL1         0.1008
@<TRIPOS>BOND
    1     1     2    1
    2     1     3    1
    3     1     4    1
    4     1     5    1
    5     5     6    1
    6     5     7    1
    7     5     8    1
    8     8     9    1
    9     8    10    1
   10     8    11    1
   11    11    12    1
   12    11    13    1
   13    11    14    1
   14    14    15    1
   15    14    16    1
   16    14    17    1
   17    17    18    1
   18    17    19    1
   19    17    20    1
@<TRIPOS>SUBSTRUCTURE
       1 MOL1            1 RESIDUE      1      MOL     
@<SCITEGIC>MOL_PROPERTY
VConf Rank
SciTegic.value.IntegerValue
242

@<SCITEGIC>MOL_PROPERTY
Conf_Id
SciTegic.value.IntegerValue
42

@<SCITEGIC>MOL_PROPERTY
Delta U+W
SciTegic.value.DoubleValue
0.508

@<SCITEGIC>MOL_PROPERTY
U+W
SciTegic.value.DoubleValue
-11.270

@<SCITEGIC>MOL_PROPERTY
Grad RMS
SciTegic.value.DoubleValue
0.000000

@<SCITEGIC>MOL_PROPERTY
U
SciTegic.value.DoubleValue
46.486

@<SCITEGIC>MOL_PROPERTY
W
SciTegic.value.DoubleValue
-57.756

@<SCITEGIC>MOL_PROPERTY
W(PB)
SciTegic.value.DoubleValue
-59.705

@<SCITEGIC>MOL_PROPERTY
W(SA)
SciTegic.value.DoubleValue
1.949

@<SCITEGIC>MOL_PROPERTY
Valence
SciTegic.value.DoubleValue
1.806

@<SCITEGIC>MOL_PROPERTY
Coulomb
SciTegic.value.DoubleValue
44.248

@<SCITEGIC>MOL_PROPERTY
VdW
SciTegic.value.DoubleValue
0.433

@<SCITEGIC>MOL_PROPERTY
VdW6
SciTegic.value.DoubleValue
-4.089

@<SCITEGIC>MOL_PROPERTY
VdW12
SciTegic.value.DoubleValue
4.522

@<SCITEGIC>MOL_PROPERTY
Bond
SciTegic.value.DoubleValue
0.131

@<SCITEGIC>MOL_PROPERTY
Angle
SciTegic.value.DoubleValue
0.628

@<SCITEGIC>MOL_PROPERTY
Pdih
SciTegic.value.DoubleValue
1.047

@<SCITEGIC>MOL_PROPERTY
Idih
SciTegic.value.DoubleValue
0.000

@<SCITEGIC>MOL_PROPERTY
Tether
SciTegic.value.DoubleValue
0.000

@<TRIPOS>MOLECULE
guest-s11_confgen4.mol2 : confsearch ligand conformer 243
          20          19           1
SMALL
USER_CHARGES
 
@<TRIPOS>ATOM
       1    N1      18.174526   16.971383   21.619359 N.4        1 MOL1        -0.5919
       2    H1      17.958752   17.362521   20.696962 H          1 MOL1         0.3682
       3    H2      18.921039   16.281772   21.487111 H          1 MOL1         0.3682
       4    H3      17.343181   16.454521   21.924813 H          1 MOL1         0.3682
       5    C1      18.565701   18.046479   22.613207 C.3        1 MOL1         0.0252
       6    H4      18.751410   17.564101   23.576706 H          1 MOL1         0.0971
       7    H5      17.716328   18.725463   22.727410 H          1 MOL1         0.0971
       8    C2      19.811210   18.842814   22.184455 C.3        1 MOL1        -0.1369
       9    H6      20.652058   18.149663   22.055679 H          1 MOL1         0.0997
      10    H7      19.626095   19.312409   21.209250 H          1 MOL1         0.0997
      11    C3      20.172079   19.928842   23.225343 C.3        1 MOL1        -0.1329
      12    H8      20.402401   19.455198   24.189812 H          1 MOL1         0.0997
      13    H9      19.293293   20.566091   23.396786 H          1 MOL1         0.0997
      14    C4      21.356123   20.828393   22.794628 C.3        1 MOL1        -0.1305
      15    H10     21.120137   21.322905   21.841924 H          1 MOL1         0.0997
      16    H11     21.476636   21.631319   23.535389 H          1 MOL1         0.0997
      17    C5      22.693812   20.064415   22.666333 C.3        1 MOL1        -0.2320
      18    H12     22.662338   19.329156   21.852805 H          1 MOL1         0.1008
      19    H13     23.514362   20.760520   22.449339 H          1 MOL1         0.1008
      20    H14     22.938859   19.537448   23.597607 H          1 MOL1         0.1008
@<TRIPOS>BOND
    1     1     2    1
    2     1     3    1
    3     1     4    1
    4     1     5    1
    5     5     6    1
    6     5     7    1
    7     5     8    1
    8     8     9    1
    9     8    10    1
   10     8    11    1
   11    11    12    1
   12    11    13    1
   13    11    14    1
   14    14    15    1
   15    14    16    1
   16    14    17    1
   17    17    18    1
   18    17    19    1
   19    17    20    1
@<TRIPOS>SUBSTRUCTURE
       1 MOL1            1 RESIDUE      1      MOL     
@<SCITEGIC>MOL_PROPERTY
VConf Rank
SciTegic.value.IntegerValue
243

@<SCITEGIC>MOL_PROPERTY
Conf_Id
SciTegic.value.IntegerValue
41

@<SCITEGIC>MOL_PROPERTY
Delta U+W
SciTegic.value.DoubleValue
0.515

@<SCITEGIC>MOL_PROPERTY
U+W
SciTegic.value.DoubleValue
-11.263

@<SCITEGIC>MOL_PROPERTY
Grad RMS
SciTegic.value.DoubleValue
0.000000

@<SCITEGIC>MOL_PROPERTY
U
SciTegic.value.DoubleValue
46.486

@<SCITEGIC>MOL_PROPERTY
W
SciTegic.value.DoubleValue
-57.749

@<SCITEGIC>MOL_PROPERTY
W(PB)
SciTegic.value.DoubleValue
-59.685

@<SCITEGIC>MOL_PROPERTY
W(SA)
SciTegic.value.DoubleValue
1.936

@<SCITEGIC>MOL_PROPERTY
Valence
SciTegic.value.DoubleValue
1.806

@<SCITEGIC>MOL_PROPERTY
Coulomb
SciTegic.value.DoubleValue
44.248

@<SCITEGIC>MOL_PROPERTY
VdW
SciTegic.value.DoubleValue
0.433

@<SCITEGIC>MOL_PROPERTY
VdW6
SciTegic.value.DoubleValue
-4.089

@<SCITEGIC>MOL_PROPERTY
VdW12
SciTegic.value.DoubleValue
4.522

@<SCITEGIC>MOL_PROPERTY
Bond
SciTegic.value.DoubleValue
0.131

@<SCITEGIC>MOL_PROPERTY
Angle
SciTegic.value.DoubleValue
0.628

@<SCITEGIC>MOL_PROPERTY
Pdih
SciTegic.value.DoubleValue
1.047

@<SCITEGIC>MOL_PROPERTY
Idih
SciTegic.value.DoubleValue
0.000

@<SCITEGIC>MOL_PROPERTY
Tether
SciTegic.value.DoubleValue
0.000

@<TRIPOS>MOLECULE
guest-s11_confgen4.mol2 : confsearch ligand conformer 244
          20          19           1
SMALL
USER_CHARGES
 
@<TRIPOS>ATOM
       1    N1      21.430815   20.906673   24.147700 N.4        1 MOL1        -0.5919
       2    H1      21.441802   21.751282   24.729091 H          1 MOL1         0.3682
       3    H2      21.224837   20.119428   24.769598 H          1 MOL1         0.3682
       4    H3      22.384602   20.774218   23.797071 H          1 MOL1         0.3682
       5    C1      20.423724   21.013792   23.018781 C.3        1 MOL1         0.0252
       6    H4      20.682281   21.896862   22.428074 H          1 MOL1         0.0971
       7    H5      19.436006   21.176577   23.458503 H          1 MOL1         0.0971
       8    C2      20.384172   19.778648   22.097520 C.3        1 MOL1        -0.1369
       9    H6      19.717662   20.005347   21.256104 H          1 MOL1         0.0997
      10    H7      21.381479   19.607445   21.671189 H          1 MOL1         0.0997
      11    C3      19.891537   18.503387   22.826997 C.3        1 MOL1        -0.1329
      12    H8      18.884140   18.674466   23.231163 H          1 MOL1         0.0997
      13    H9      20.540357   18.302046   23.689610 H          1 MOL1         0.0997
      14    C4      19.880103   17.243802   21.926833 C.3        1 MOL1        -0.1305
      15    H10     20.888809   17.060442   21.530907 H          1 MOL1         0.0997
      16    H11     19.630495   16.370820   22.546139 H          1 MOL1         0.0997
      17    C5      18.870528   17.329209   20.759260 C.3        1 MOL1        -0.2320
      18    H12     19.148494   18.110134   20.040817 H          1 MOL1         0.1008
      19    H13     18.834177   16.377812   20.212934 H          1 MOL1         0.1008
      20    H14     17.858512   17.543360   21.126639 H          1 MOL1         0.1008
@<TRIPOS>BOND
    1     1     2    1
    2     1     3    1
    3     1     4    1
    4     1     5    1
    5     5     6    1
    6     5     7    1
    7     5     8    1
    8     8     9    1
    9     8    10    1
   10     8    11    1
   11    11    12    1
   12    11    13    1
   13    11    14    1
   14    14    15    1
   15    14    16    1
   16    14    17    1
   17    17    18    1
   18    17    19    1
   19    17    20    1
@<TRIPOS>SUBSTRUCTURE
       1 MOL1            1 RESIDUE      1      MOL     
@<SCITEGIC>MOL_PROPERTY
VConf Rank
SciTegic.value.IntegerValue
244

@<SCITEGIC>MOL_PROPERTY
Conf_Id
SciTegic.value.IntegerValue
33

@<SCITEGIC>MOL_PROPERTY
Delta U+W
SciTegic.value.DoubleValue
0.703

@<SCITEGIC>MOL_PROPERTY
U+W
SciTegic.value.DoubleValue
-11.075

@<SCITEGIC>MOL_PROPERTY
Grad RMS
SciTegic.value.DoubleValue
0.000000

@<SCITEGIC>MOL_PROPERTY
U
SciTegic.value.DoubleValue
47.080

@<SCITEGIC>MOL_PROPERTY
W
SciTegic.value.DoubleValue
-58.154

@<SCITEGIC>MOL_PROPERTY
W(PB)
SciTegic.value.DoubleValue
-60.053

@<SCITEGIC>MOL_PROPERTY
W(SA)
SciTegic.value.DoubleValue
1.899

@<SCITEGIC>MOL_PROPERTY
Valence
SciTegic.value.DoubleValue
1.943

@<SCITEGIC>MOL_PROPERTY
Coulomb
SciTegic.value.DoubleValue
44.572

@<SCITEGIC>MOL_PROPERTY
VdW
SciTegic.value.DoubleValue
0.565

@<SCITEGIC>MOL_PROPERTY
VdW6
SciTegic.value.DoubleValue
-4.575

@<SCITEGIC>MOL_PROPERTY
VdW12
SciTegic.value.DoubleValue
5.139

@<SCITEGIC>MOL_PROPERTY
Bond
SciTegic.value.DoubleValue
0.158

@<SCITEGIC>MOL_PROPERTY
Angle
SciTegic.value.DoubleValue
0.700

@<SCITEGIC>MOL_PROPERTY
Pdih
SciTegic.value.DoubleValue
1.085

@<SCITEGIC>MOL_PROPERTY
Idih
SciTegic.value.DoubleValue
0.000

@<SCITEGIC>MOL_PROPERTY
Tether
SciTegic.value.DoubleValue
0.000

@<TRIPOS>MOLECULE
guest-s11_confgen4.mol2 : confsearch ligand conformer 245
          20          19           1
SMALL
USER_CHARGES
 
@<TRIPOS>ATOM
       1    N1      20.424873   20.771193   24.669301 N.4        1 MOL1        -0.5919
       2    H1      20.703190   20.936944   25.642218 H          1 MOL1         0.3682
       3    H2      20.535149   21.660683   24.172472 H          1 MOL1         0.3682
       4    H3      19.424537   20.551697   24.678738 H          1 MOL1         0.3682
       5    C1      21.240772   19.663072   24.031697 C.3        1 MOL1         0.0252
       6    H4      21.097313   18.753139   24.620666 H          1 MOL1         0.0971
       7    H5      22.294263   19.948237   24.098308 H          1 MOL1         0.0971
       8    C2      20.879451   19.389647   22.558420 C.3        1 MOL1        -0.1369
       9    H6      21.007788   20.309611   21.972854 H          1 MOL1         0.0997
      10    H7      21.599489   18.662574   22.162794 H          1 MOL1         0.0997
      11    C3      19.438461   18.846425   22.386448 C.3        1 MOL1        -0.1329
      12    H8      18.724608   19.561187   22.816727 H          1 MOL1         0.0997
      13    H9      19.324245   17.914144   22.956777 H          1 MOL1         0.0997
      14    C4      19.044603   18.600197   20.909551 C.3        1 MOL1        -0.1305
      15    H10     17.980477   18.328190   20.869688 H          1 MOL1         0.0997
      16    H11     19.144115   19.533350   20.337546 H          1 MOL1         0.0997
      17    C5      19.868467   17.482788   20.229545 C.3        1 MOL1        -0.2320
      18    H12     19.810996   16.546549   20.799773 H          1 MOL1         0.1008
      19    H13     19.485920   17.284115   19.220023 H          1 MOL1         0.1008
      20    H14     20.924735   17.761994   20.131508 H          1 MOL1         0.1008
@<TRIPOS>BOND
    1     1     2    1
    2     1     3    1
    3     1     4    1
    4     1     5    1
    5     5     6    1
    6     5     7    1
    7     5     8    1
    8     8     9    1
    9     8    10    1
   10     8    11    1
   11    11    12    1
   12    11    13    1
   13    11    14    1
   14    14    15    1
   15    14    16    1
   16    14    17    1
   17    17    18    1
   18    17    19    1
   19    17    20    1
@<TRIPOS>SUBSTRUCTURE
       1 MOL1            1 RESIDUE      1      MOL     
@<SCITEGIC>MOL_PROPERTY
VConf Rank
SciTegic.value.IntegerValue
245

@<SCITEGIC>MOL_PROPERTY
Conf_Id
SciTegic.value.IntegerValue
24

@<SCITEGIC>MOL_PROPERTY
Delta U+W
SciTegic.value.DoubleValue
0.847

@<SCITEGIC>MOL_PROPERTY
U+W
SciTegic.value.DoubleValue
-10.931

@<SCITEGIC>MOL_PROPERTY
Grad RMS
SciTegic.value.DoubleValue
0.000000

@<SCITEGIC>MOL_PROPERTY
U
SciTegic.value.DoubleValue
47.080

@<SCITEGIC>MOL_PROPERTY
W
SciTegic.value.DoubleValue
-58.011

@<SCITEGIC>MOL_PROPERTY
W(PB)
SciTegic.value.DoubleValue
-59.914

@<SCITEGIC>MOL_PROPERTY
W(SA)
SciTegic.value.DoubleValue
1.903

@<SCITEGIC>MOL_PROPERTY
Valence
SciTegic.value.DoubleValue
1.943

@<SCITEGIC>MOL_PROPERTY
Coulomb
SciTegic.value.DoubleValue
44.572

@<SCITEGIC>MOL_PROPERTY
VdW
SciTegic.value.DoubleValue
0.565

@<SCITEGIC>MOL_PROPERTY
VdW6
SciTegic.value.DoubleValue
-4.575

@<SCITEGIC>MOL_PROPERTY
VdW12
SciTegic.value.DoubleValue
5.140

@<SCITEGIC>MOL_PROPERTY
Bond
SciTegic.value.DoubleValue
0.158

@<SCITEGIC>MOL_PROPERTY
Angle
SciTegic.value.DoubleValue
0.700

@<SCITEGIC>MOL_PROPERTY
Pdih
SciTegic.value.DoubleValue
1.085

@<SCITEGIC>MOL_PROPERTY
Idih
SciTegic.value.DoubleValue
0.000

@<SCITEGIC>MOL_PROPERTY
Tether
SciTegic.value.DoubleValue
0.000

@<TRIPOS>MOLECULE
guest-s11_confgen4.mol2 : confsearch ligand conformer 246
          20          19           1
SMALL
USER_CHARGES
 
@<TRIPOS>ATOM
       1    N1      22.358823   20.816258   22.539118 N.4        1 MOL1        -0.5919
       2    H1      22.618377   21.534729   21.855071 H          1 MOL1         0.3682
       3    H2      22.018083   21.307472   23.371481 H          1 MOL1         0.3682
       4    H3      23.223103   20.334635   22.806266 H          1 MOL1         0.3682
       5    C1      21.324853   19.857539   21.984058 C.3        1 MOL1         0.0252
       6    H4      21.741798   19.393296   21.086276 H          1 MOL1         0.0971
       7    H5      20.447404   20.441254   21.693641 H          1 MOL1         0.0971
       8    C2      20.912068   18.764753   22.988077 C.3        1 MOL1        -0.1369
       9    H6      21.806373   18.211792   23.304642 H          1 MOL1         0.0997
      10    H7      20.501798   19.229963   23.893456 H          1 MOL1         0.0997
      11    C3      19.888865   17.763036   22.396795 C.3        1 MOL1        -0.1329
      12    H8      19.648751   17.008022   23.158085 H          1 MOL1         0.0997
      13    H9      20.362032   17.217055   21.568840 H          1 MOL1         0.0997
      14    C4      18.572929   18.402794   21.884695 C.3        1 MOL1        -0.1305
      15    H10     18.782251   19.084215   21.048857 H          1 MOL1         0.0997
      16    H11     17.934564   17.608599   21.472838 H          1 MOL1         0.0997
      17    C5      17.786624   19.153823   22.983189 C.3        1 MOL1        -0.2320
      18    H12     16.822943   19.506298   22.593337 H          1 MOL1         0.1008
      19    H13     17.582517   18.499148   23.840345 H          1 MOL1         0.1008
      20    H14     18.337125   20.031610   23.343845 H          1 MOL1         0.1008
@<TRIPOS>BOND
    1     1     2    1
    2     1     3    1
    3     1     4    1
    4     1     5    1
    5     5     6    1
    6     5     7    1
    7     5     8    1
    8     8     9    1
    9     8    10    1
   10     8    11    1
   11    11    12    1
   12    11    13    1
   13    11    14    1
   14    14    15    1
   15    14    16    1
   16    14    17    1
   17    17    18    1
   18    17    19    1
   19    17    20    1
@<TRIPOS>SUBSTRUCTURE
       1 MOL1            1 RESIDUE      1      MOL     
@<SCITEGIC>MOL_PROPERTY
VConf Rank
SciTegic.value.IntegerValue
246

@<SCITEGIC>MOL_PROPERTY
Conf_Id
SciTegic.value.IntegerValue
64

@<SCITEGIC>MOL_PROPERTY
Delta U+W
SciTegic.value.DoubleValue
0.707

@<SCITEGIC>MOL_PROPERTY
U+W
SciTegic.value.DoubleValue
-11.070

@<SCITEGIC>MOL_PROPERTY
Grad RMS
SciTegic.value.DoubleValue
0.000000

@<SCITEGIC>MOL_PROPERTY
U
SciTegic.value.DoubleValue
47.077

@<SCITEGIC>MOL_PROPERTY
W
SciTegic.value.DoubleValue
-58.148

@<SCITEGIC>MOL_PROPERTY
W(PB)
SciTegic.value.DoubleValue
-60.054

@<SCITEGIC>MOL_PROPERTY
W(SA)
SciTegic.value.DoubleValue
1.906

@<SCITEGIC>MOL_PROPERTY
Valence
SciTegic.value.DoubleValue
2.039

@<SCITEGIC>MOL_PROPERTY
Coulomb
SciTegic.value.DoubleValue
44.655

@<SCITEGIC>MOL_PROPERTY
VdW
SciTegic.value.DoubleValue
0.383

@<SCITEGIC>MOL_PROPERTY
VdW6
SciTegic.value.DoubleValue
-4.912

@<SCITEGIC>MOL_PROPERTY
VdW12
SciTegic.value.DoubleValue
5.295

@<SCITEGIC>MOL_PROPERTY
Bond
SciTegic.value.DoubleValue
0.159

@<SCITEGIC>MOL_PROPERTY
Angle
SciTegic.value.DoubleValue
0.856

@<SCITEGIC>MOL_PROPERTY
Pdih
SciTegic.value.DoubleValue
1.024

@<SCITEGIC>MOL_PROPERTY
Idih
SciTegic.value.DoubleValue
0.000

@<SCITEGIC>MOL_PROPERTY
Tether
SciTegic.value.DoubleValue
0.000

@<TRIPOS>MOLECULE
guest-s11_confgen4.mol2 : confsearch ligand conformer 247
          20          19           1
SMALL
USER_CHARGES
 
@<TRIPOS>ATOM
       1    N1      18.999614   16.704372   21.760543 N.4        1 MOL1        -0.5919
       2    H1      19.010512   15.981407   22.486843 H          1 MOL1         0.3682
       3    H2      18.072045   17.139519   21.782568 H          1 MOL1         0.3682
       4    H3      19.080408   16.221531   20.859530 H          1 MOL1         0.3682
       5    C1      20.106818   17.720284   21.956368 C.3        1 MOL1         0.0252
       6    H4      20.053147   18.438210   21.133758 H          1 MOL1         0.0971
       7    H5      21.063283   17.194499   21.892297 H          1 MOL1         0.0971
       8    C2      20.014187   18.464692   23.301692 C.3        1 MOL1        -0.1369
       9    H6      19.050564   18.985360   23.370918 H          1 MOL1         0.0997
      10    H7      20.027134   17.731688   24.119187 H          1 MOL1         0.0997
      11    C3      21.175201   19.468465   23.512599 C.3        1 MOL1        -0.1329
      12    H8      22.121709   18.912774   23.565744 H          1 MOL1         0.0997
      13    H9      21.054067   19.952680   24.491438 H          1 MOL1         0.0997
      14    C4      21.298613   20.560152   22.418885 C.3        1 MOL1        -0.1305
      15    H10     22.159839   21.199665   22.658038 H          1 MOL1         0.0997
      16    H11     21.525991   20.100321   21.447478 H          1 MOL1         0.0997
      17    C5      20.039683   21.447820   22.291803 C.3        1 MOL1        -0.2320
      18    H12     19.778795   21.903466   23.255805 H          1 MOL1         0.1008
      19    H13     20.212382   22.259261   21.573024 H          1 MOL1         0.1008
      20    H14     19.175224   20.872467   21.937803 H          1 MOL1         0.1008
@<TRIPOS>BOND
    1     1     2    1
    2     1     3    1
    3     1     4    1
    4     1     5    1
    5     5     6    1
    6     5     7    1
    7     5     8    1
    8     8     9    1
    9     8    10    1
   10     8    11    1
   11    11    12    1
   12    11    13    1
   13    11    14    1
   14    14    15    1
   15    14    16    1
   16    14    17    1
   17    17    18    1
   18    17    19    1
   19    17    20    1
@<TRIPOS>SUBSTRUCTURE
       1 MOL1            1 RESIDUE      1      MOL     
@<SCITEGIC>MOL_PROPERTY
VConf Rank
SciTegic.value.IntegerValue
247

@<SCITEGIC>MOL_PROPERTY
Conf_Id
SciTegic.value.IntegerValue
22

@<SCITEGIC>MOL_PROPERTY
Delta U+W
SciTegic.value.DoubleValue
0.731

@<SCITEGIC>MOL_PROPERTY
U+W
SciTegic.value.DoubleValue
-11.047

@<SCITEGIC>MOL_PROPERTY
Grad RMS
SciTegic.value.DoubleValue
0.000000

@<SCITEGIC>MOL_PROPERTY
U
SciTegic.value.DoubleValue
47.078

@<SCITEGIC>MOL_PROPERTY
W
SciTegic.value.DoubleValue
-58.125

@<SCITEGIC>MOL_PROPERTY
W(PB)
SciTegic.value.DoubleValue
-60.031

@<SCITEGIC>MOL_PROPERTY
W(SA)
SciTegic.value.DoubleValue
1.906

@<SCITEGIC>MOL_PROPERTY
Valence
SciTegic.value.DoubleValue
2.039

@<SCITEGIC>MOL_PROPERTY
Coulomb
SciTegic.value.DoubleValue
44.655

@<SCITEGIC>MOL_PROPERTY
VdW
SciTegic.value.DoubleValue
0.383

@<SCITEGIC>MOL_PROPERTY
VdW6
SciTegic.value.DoubleValue
-4.913

@<SCITEGIC>MOL_PROPERTY
VdW12
SciTegic.value.DoubleValue
5.296

@<SCITEGIC>MOL_PROPERTY
Bond
SciTegic.value.DoubleValue
0.159

@<SCITEGIC>MOL_PROPERTY
Angle
SciTegic.value.DoubleValue
0.856

@<SCITEGIC>MOL_PROPERTY
Pdih
SciTegic.value.DoubleValue
1.024

@<SCITEGIC>MOL_PROPERTY
Idih
SciTegic.value.DoubleValue
0.000

@<SCITEGIC>MOL_PROPERTY
Tether
SciTegic.value.DoubleValue
0.000

@<TRIPOS>MOLECULE
guest-s11_confgen4.mol2 : confsearch ligand conformer 248
          20          19           1
SMALL
USER_CHARGES
 
@<TRIPOS>ATOM
       1    N1      22.880361   18.756448   22.370840 N.4        1 MOL1        -0.5919
       2    H1      22.927289   17.732959   22.395404 H          1 MOL1         0.3682
       3    H2      23.293409   19.055525   21.481877 H          1 MOL1         0.3682
       4    H3      23.496210   19.100356   23.115118 H          1 MOL1         0.3682
       5    C1      21.461330   19.262495   22.534783 C.3        1 MOL1         0.0252
       6    H4      21.488811   20.355463   22.526872 H          1 MOL1         0.0971
       7    H5      21.101786   18.930698   23.511464 H          1 MOL1         0.0971
       8    C2      20.509547   18.758955   21.435134 C.3        1 MOL1        -0.1369
       9    H6      20.945501   18.995546   20.455393 H          1 MOL1         0.0997
      10    H7      20.438268   17.664389   21.486420 H          1 MOL1         0.0997
      11    C3      19.089623   19.376405   21.502089 C.3        1 MOL1        -0.1329
      12    H8      18.532843   19.018690   20.624828 H          1 MOL1         0.0997
      13    H9      19.145719   20.468296   21.392651 H          1 MOL1         0.0997
      14    C4      18.275648   19.006498   22.769292 C.3        1 MOL1        -0.1305
      15    H10     17.207248   19.032787   22.512520 H          1 MOL1         0.0997
      16    H11     18.487907   17.971019   23.070076 H          1 MOL1         0.0997
      17    C5      18.498866   19.967669   23.960577 C.3        1 MOL1        -0.2320
      18    H12     19.526243   19.931246   24.337465 H          1 MOL1         0.1008
      19    H13     18.276501   21.004543   23.676943 H          1 MOL1         0.1008
      20    H14     17.835494   19.702625   24.794048 H          1 MOL1         0.1008
@<TRIPOS>BOND
    1     1     2    1
    2     1     3    1
    3     1     4    1
    4     1     5    1
    5     5     6    1
    6     5     7    1
    7     5     8    1
    8     8     9    1
    9     8    10    1
   10     8    11    1
   11    11    12    1
   12    11    13    1
   13    11    14    1
   14    14    15    1
   15    14    16    1
   16    14    17    1
   17    17    18    1
   18    17    19    1
   19    17    20    1
@<TRIPOS>SUBSTRUCTURE
       1 MOL1            1 RESIDUE      1      MOL     
@<SCITEGIC>MOL_PROPERTY
VConf Rank
SciTegic.value.IntegerValue
248

@<SCITEGIC>MOL_PROPERTY
Conf_Id
SciTegic.value.IntegerValue
61

@<SCITEGIC>MOL_PROPERTY
Delta U+W
SciTegic.value.DoubleValue
2.669

@<SCITEGIC>MOL_PROPERTY
U+W
SciTegic.value.DoubleValue
-9.108

@<SCITEGIC>MOL_PROPERTY
Grad RMS
SciTegic.value.DoubleValue
0.000000

@<SCITEGIC>MOL_PROPERTY
U
SciTegic.value.DoubleValue
48.916

@<SCITEGIC>MOL_PROPERTY
W
SciTegic.value.DoubleValue
-58.025

@<SCITEGIC>MOL_PROPERTY
W(PB)
SciTegic.value.DoubleValue
-59.935

@<SCITEGIC>MOL_PROPERTY
W(SA)
SciTegic.value.DoubleValue
1.911

@<SCITEGIC>MOL_PROPERTY
Valence
SciTegic.value.DoubleValue
3.785

@<SCITEGIC>MOL_PROPERTY
Coulomb
SciTegic.value.DoubleValue
44.716

@<SCITEGIC>MOL_PROPERTY
VdW
SciTegic.value.DoubleValue
0.415

@<SCITEGIC>MOL_PROPERTY
VdW6
SciTegic.value.DoubleValue
-4.836

@<SCITEGIC>MOL_PROPERTY
VdW12
SciTegic.value.DoubleValue
5.251

@<SCITEGIC>MOL_PROPERTY
Bond
SciTegic.value.DoubleValue
0.175

@<SCITEGIC>MOL_PROPERTY
Angle
SciTegic.value.DoubleValue
1.195

@<SCITEGIC>MOL_PROPERTY
Pdih
SciTegic.value.DoubleValue
2.415

@<SCITEGIC>MOL_PROPERTY
Idih
SciTegic.value.DoubleValue
0.000

@<SCITEGIC>MOL_PROPERTY
Tether
SciTegic.value.DoubleValue
0.000

@<TRIPOS>MOLECULE
guest-s11_confgen4.mol2 : confsearch ligand conformer 249
          20          19           1
SMALL
USER_CHARGES
 
@<TRIPOS>ATOM
       1    N1      20.198609   20.443485   20.604466 N.4        1 MOL1        -0.5919
       2    H1      20.801666   20.856423   19.885129 H          1 MOL1         0.3682
       3    H2      19.275444   20.876525   20.501777 H          1 MOL1         0.3682
       4    H3      20.570046   20.735682   21.512034 H          1 MOL1         0.3682
       5    C1      20.128671   18.933475   20.479765 C.3        1 MOL1         0.0252
       6    H4      21.143629   18.531312   20.538601 H          1 MOL1         0.0971
       7    H5      19.735905   18.714622   19.483071 H          1 MOL1         0.0971
       8    C2      19.231946   18.248867   21.532699 C.3        1 MOL1        -0.1369
       9    H6      18.304905   18.821778   21.667543 H          1 MOL1         0.0997
      10    H7      18.927019   17.274509   21.128326 H          1 MOL1         0.0997
      11    C3      19.918003   18.000968   22.900779 C.3        1 MOL1        -0.1329
      12    H8      20.811195   17.377773   22.754825 H          1 MOL1         0.0997
      13    H9      19.232627   17.410602   23.524644 H          1 MOL1         0.0997
      14    C4      20.306422   19.287743   23.666058 C.3        1 MOL1        -0.1305
      15    H10     21.103590   19.817940   23.130088 H          1 MOL1         0.0997
      16    H11     19.442427   19.964757   23.721804 H          1 MOL1         0.0997
      17    C5      20.800175   18.972493   25.094289 C.3        1 MOL1        -0.2320
      18    H12     21.080697   19.894420   25.620036 H          1 MOL1         0.1008
      19    H13     20.018076   18.475095   25.682625 H          1 MOL1         0.1008
      20    H14     21.680246   18.316561   25.071991 H          1 MOL1         0.1008
@<TRIPOS>BOND
    1     1     2    1
    2     1     3    1
    3     1     4    1
    4     1     5    1
    5     5     6    1
    6     5     7    1
    7     5     8    1
    8     8     9    1
    9     8    10    1
   10     8    11    1
   11    11    12    1
   12    11    13    1
   13    11    14    1
   14    14    15    1
   15    14    16    1
   16    14    17    1
   17    17    18    1
   18    17    19    1
   19    17    20    1
@<TRIPOS>SUBSTRUCTURE
       1 MOL1            1 RESIDUE      1      MOL     
@<SCITEGIC>MOL_PROPERTY
VConf Rank
SciTegic.value.IntegerValue
249

@<SCITEGIC>MOL_PROPERTY
Conf_Id
SciTegic.value.IntegerValue
69

@<SCITEGIC>MOL_PROPERTY
Delta U+W
SciTegic.value.DoubleValue
2.811

@<SCITEGIC>MOL_PROPERTY
U+W
SciTegic.value.DoubleValue
-8.967

@<SCITEGIC>MOL_PROPERTY
Grad RMS
SciTegic.value.DoubleValue
0.000000

@<SCITEGIC>MOL_PROPERTY
U
SciTegic.value.DoubleValue
49.216

@<SCITEGIC>MOL_PROPERTY
W
SciTegic.value.DoubleValue
-58.183

@<SCITEGIC>MOL_PROPERTY
W(PB)
SciTegic.value.DoubleValue
-60.064

@<SCITEGIC>MOL_PROPERTY
W(SA)
SciTegic.value.DoubleValue
1.881

@<SCITEGIC>MOL_PROPERTY
Valence
SciTegic.value.DoubleValue
2.929

@<SCITEGIC>MOL_PROPERTY
Coulomb
SciTegic.value.DoubleValue
46.006

@<SCITEGIC>MOL_PROPERTY
VdW
SciTegic.value.DoubleValue
0.281

@<SCITEGIC>MOL_PROPERTY
VdW6
SciTegic.value.DoubleValue
-4.909

@<SCITEGIC>MOL_PROPERTY
VdW12
SciTegic.value.DoubleValue
5.190

@<SCITEGIC>MOL_PROPERTY
Bond
SciTegic.value.DoubleValue
0.156

@<SCITEGIC>MOL_PROPERTY
Angle
SciTegic.value.DoubleValue
0.974

@<SCITEGIC>MOL_PROPERTY
Pdih
SciTegic.value.DoubleValue
1.799

@<SCITEGIC>MOL_PROPERTY
Idih
SciTegic.value.DoubleValue
0.000

@<SCITEGIC>MOL_PROPERTY
Tether
SciTegic.value.DoubleValue
0.000

@<TRIPOS>MOLECULE
guest-s11_confgen4.mol2 : confsearch ligand conformer 250
          20          19           1
SMALL
USER_CHARGES
 
@<TRIPOS>ATOM
       1    N1      17.968136   18.774707   23.233059 N.4        1 MOL1        -0.5919
       2    H1      18.669225   19.266367   23.793214 H          1 MOL1         0.3682
       3    H2      17.339726   19.484585   22.843858 H          1 MOL1         0.3682
       4    H3      17.410173   18.206934   23.879553 H          1 MOL1         0.3682
       5    C1      18.602471   17.928150   22.146078 C.3        1 MOL1         0.0252
       6    H4      17.786762   17.434207   21.611105 H          1 MOL1         0.0971
       7    H5      19.213688   17.154556   22.618631 H          1 MOL1         0.0971
       8    C2      19.454406   18.724316   21.135234 C.3        1 MOL1        -0.1369
       9    H6      19.515655   18.133008   20.211938 H          1 MOL1         0.0997
      10    H7      18.941520   19.656036   20.861994 H          1 MOL1         0.0997
      11    C3      20.901722   19.021719   21.604914 C.3        1 MOL1        -0.1329
      12    H8      21.444025   19.484261   20.768588 H          1 MOL1         0.0997
      13    H9      21.419000   18.075999   21.818226 H          1 MOL1         0.0997
      14    C4      20.997877   19.951463   22.837247 C.3        1 MOL1        -0.1305
      15    H10     20.393060   20.854244   22.672549 H          1 MOL1         0.0997
      16    H11     20.594930   19.444698   23.723066 H          1 MOL1         0.0997
      17    C5      22.457571   20.361534   23.127337 C.3        1 MOL1        -0.2320
      18    H12     22.890713   20.908927   22.280005 H          1 MOL1         0.1008
      19    H13     22.509516   21.012660   24.009600 H          1 MOL1         0.1008
      20    H14     23.083894   19.481011   23.321422 H          1 MOL1         0.1008
@<TRIPOS>BOND
    1     1     2    1
    2     1     3    1
    3     1     4    1
    4     1     5    1
    5     5     6    1
    6     5     7    1
    7     5     8    1
    8     8     9    1
    9     8    10    1
   10     8    11    1
   11    11    12    1
   12    11    13    1
   13    11    14    1
   14    14    15    1
   15    14    16    1
   16    14    17    1
   17    17    18    1
   18    17    19    1
   19    17    20    1
@<TRIPOS>SUBSTRUCTURE
       1 MOL1            1 RESIDUE      1      MOL     
@<SCITEGIC>MOL_PROPERTY
VConf Rank
SciTegic.value.IntegerValue
250

@<SCITEGIC>MOL_PROPERTY
Conf_Id
SciTegic.value.IntegerValue
26

@<SCITEGIC>MOL_PROPERTY
Delta U+W
SciTegic.value.DoubleValue
2.809

@<SCITEGIC>MOL_PROPERTY
U+W
SciTegic.value.DoubleValue
-8.969

@<SCITEGIC>MOL_PROPERTY
Grad RMS
SciTegic.value.DoubleValue
0.000000

@<SCITEGIC>MOL_PROPERTY
U
SciTegic.value.DoubleValue
49.216

@<SCITEGIC>MOL_PROPERTY
W
SciTegic.value.DoubleValue
-58.185

@<SCITEGIC>MOL_PROPERTY
W(PB)
SciTegic.value.DoubleValue
-60.088

@<SCITEGIC>MOL_PROPERTY
W(SA)
SciTegic.value.DoubleValue
1.903

@<SCITEGIC>MOL_PROPERTY
Valence
SciTegic.value.DoubleValue
2.929

@<SCITEGIC>MOL_PROPERTY
Coulomb
SciTegic.value.DoubleValue
46.006

@<SCITEGIC>MOL_PROPERTY
VdW
SciTegic.value.DoubleValue
0.281

@<SCITEGIC>MOL_PROPERTY
VdW6
SciTegic.value.DoubleValue
-4.909

@<SCITEGIC>MOL_PROPERTY
VdW12
SciTegic.value.DoubleValue
5.190

@<SCITEGIC>MOL_PROPERTY
Bond
SciTegic.value.DoubleValue
0.156

@<SCITEGIC>MOL_PROPERTY
Angle
SciTegic.value.DoubleValue
0.974

@<SCITEGIC>MOL_PROPERTY
Pdih
SciTegic.value.DoubleValue
1.799

@<SCITEGIC>MOL_PROPERTY
Idih
SciTegic.value.DoubleValue
0.000

@<SCITEGIC>MOL_PROPERTY
Tether
SciTegic.value.DoubleValue
0.000

@<TRIPOS>MOLECULE
guest-s11_confgen4.mol2 : confsearch ligand conformer 251
          20          19           1
SMALL
USER_CHARGES
 
@<TRIPOS>ATOM
       1    N1      22.326730   18.871908   21.494339 N.4        1 MOL1        -0.5919
       2    H1      21.761820   18.063800   21.217255 H          1 MOL1         0.3682
       3    H2      22.539357   19.399297   20.641879 H          1 MOL1         0.3682
       4    H3      23.216996   18.508600   21.850349 H          1 MOL1         0.3682
       5    C1      21.614831   19.727630   22.523873 C.3        1 MOL1         0.0252
       6    H4      22.284207   20.548637   22.794783 H          1 MOL1         0.0971
       7    H5      21.447937   19.118050   23.415775 H          1 MOL1         0.0971
       8    C2      20.272490   20.303736   22.029387 C.3        1 MOL1        -0.1369
       9    H6      19.865878   20.967452   22.803130 H          1 MOL1         0.0997
      10    H7      20.455712   20.941189   21.154332 H          1 MOL1         0.0997
      11    C3      19.219757   19.224510   21.663303 C.3        1 MOL1        -0.1329
      12    H8      19.562211   18.667253   20.781035 H          1 MOL1         0.0997
      13    H9      18.291760   19.725925   21.355726 H          1 MOL1         0.0997
      14    C4      18.897519   18.219018   22.798284 C.3        1 MOL1        -0.1305
      15    H10     18.162414   17.492407   22.424777 H          1 MOL1         0.0997
      16    H11     19.792506   17.636794   23.056181 H          1 MOL1         0.0997
      17    C5      18.331280   18.890765   24.069886 C.3        1 MOL1        -0.2320
      18    H12     17.444046   19.493435   23.836292 H          1 MOL1         0.1008
      19    H13     18.037119   18.132383   24.806915 H          1 MOL1         0.1008
      20    H14     19.074301   19.542605   24.545939 H          1 MOL1         0.1008
@<TRIPOS>BOND
    1     1     2    1
    2     1     3    1
    3     1     4    1
    4     1     5    1
    5     5     6    1
    6     5     7    1
    7     5     8    1
    8     8     9    1
    9     8    10    1
   10     8    11    1
   11    11    12    1
   12    11    13    1
   13    11    14    1
   14    14    15    1
   15    14    16    1
   16    14    17    1
   17    17    18    1
   18    17    19    1
   19    17    20    1
@<TRIPOS>SUBSTRUCTURE
       1 MOL1            1 RESIDUE      1      MOL     
@<SCITEGIC>MOL_PROPERTY
VConf Rank
SciTegic.value.IntegerValue
251

@<SCITEGIC>MOL_PROPERTY
Conf_Id
SciTegic.value.IntegerValue
2

@<SCITEGIC>MOL_PROPERTY
Delta U+W
SciTegic.value.DoubleValue
0.994

@<SCITEGIC>MOL_PROPERTY
U+W
SciTegic.value.DoubleValue
-10.784

@<SCITEGIC>MOL_PROPERTY
Grad RMS
SciTegic.value.DoubleValue
0.000000

@<SCITEGIC>MOL_PROPERTY
U
SciTegic.value.DoubleValue
47.562

@<SCITEGIC>MOL_PROPERTY
W
SciTegic.value.DoubleValue
-58.346

@<SCITEGIC>MOL_PROPERTY
W(PB)
SciTegic.value.DoubleValue
-60.221

@<SCITEGIC>MOL_PROPERTY
W(SA)
SciTegic.value.DoubleValue
1.875

@<SCITEGIC>MOL_PROPERTY
Valence
SciTegic.value.DoubleValue
2.149

@<SCITEGIC>MOL_PROPERTY
Coulomb
SciTegic.value.DoubleValue
45.034

@<SCITEGIC>MOL_PROPERTY
VdW
SciTegic.value.DoubleValue
0.378

@<SCITEGIC>MOL_PROPERTY
VdW6
SciTegic.value.DoubleValue
-5.599

@<SCITEGIC>MOL_PROPERTY
VdW12
SciTegic.value.DoubleValue
5.977

@<SCITEGIC>MOL_PROPERTY
Bond
SciTegic.value.DoubleValue
0.185

@<SCITEGIC>MOL_PROPERTY
Angle
SciTegic.value.DoubleValue
0.935

@<SCITEGIC>MOL_PROPERTY
Pdih
SciTegic.value.DoubleValue
1.028

@<SCITEGIC>MOL_PROPERTY
Idih
SciTegic.value.DoubleValue
0.000

@<SCITEGIC>MOL_PROPERTY
Tether
SciTegic.value.DoubleValue
0.000

@<TRIPOS>MOLECULE
guest-s11_confgen4.mol2 : confsearch ligand conformer 252
          20          19           1
SMALL
USER_CHARGES
 
@<TRIPOS>ATOM
       1    N1      18.540296   20.309168   21.164680 N.4        1 MOL1        -0.5919
       2    H1      18.880361   20.812095   20.339175 H          1 MOL1         0.3682
       3    H2      18.453149   19.322710   20.903442 H          1 MOL1         0.3682
       4    H3      17.593901   20.654419   21.355590 H          1 MOL1         0.3682
       5    C1      19.459323   20.494931   22.356266 C.3        1 MOL1         0.0252
       6    H4      19.024548   19.963686   23.206961 H          1 MOL1         0.0971
       7    H5      19.480584   21.561191   22.597398 H          1 MOL1         0.0971
       8    C2      20.898276   19.996602   22.112606 C.3        1 MOL1        -0.1369
       9    H6      21.337168   20.559988   21.278575 H          1 MOL1         0.0997
      10    H7      21.509838   20.238044   22.991373 H          1 MOL1         0.0997
      11    C3      20.997019   18.477998   21.810805 C.3        1 MOL1        -0.1329
      12    H8      22.055304   18.210640   21.685293 H          1 MOL1         0.0997
      13    H9      20.521335   18.268013   20.843417 H          1 MOL1         0.0997
      14    C4      20.368904   17.558481   22.889228 C.3        1 MOL1        -0.1305
      15    H10     19.288512   17.742173   22.963428 H          1 MOL1         0.0997
      16    H11     20.475548   16.513894   22.564707 H          1 MOL1         0.0997
      17    C5      21.018805   17.715393   24.282729 C.3        1 MOL1        -0.2320
      18    H12     20.839375   18.713743   24.700705 H          1 MOL1         0.1008
      19    H13     20.601689   16.983260   24.986208 H          1 MOL1         0.1008
      20    H14     22.103277   17.552847   24.233139 H          1 MOL1         0.1008
@<TRIPOS>BOND
    1     1     2    1
    2     1     3    1
    3     1     4    1
    4     1     5    1
    5     5     6    1
    6     5     7    1
    7     5     8    1
    8     8     9    1
    9     8    10    1
   10     8    11    1
   11    11    12    1
   12    11    13    1
   13    11    14    1
   14    14    15    1
   15    14    16    1
   16    14    17    1
   17    17    18    1
   18    17    19    1
   19    17    20    1
@<TRIPOS>SUBSTRUCTURE
       1 MOL1            1 RESIDUE      1      MOL     
@<SCITEGIC>MOL_PROPERTY
VConf Rank
SciTegic.value.IntegerValue
252

@<SCITEGIC>MOL_PROPERTY
Conf_Id
SciTegic.value.IntegerValue
1

@<SCITEGIC>MOL_PROPERTY
Delta U+W
SciTegic.value.DoubleValue
1.032

@<SCITEGIC>MOL_PROPERTY
U+W
SciTegic.value.DoubleValue
-10.746

@<SCITEGIC>MOL_PROPERTY
Grad RMS
SciTegic.value.DoubleValue
0.000000

@<SCITEGIC>MOL_PROPERTY
U
SciTegic.value.DoubleValue
47.562

@<SCITEGIC>MOL_PROPERTY
W
SciTegic.value.DoubleValue
-58.308

@<SCITEGIC>MOL_PROPERTY
W(PB)
SciTegic.value.DoubleValue
-60.184

@<SCITEGIC>MOL_PROPERTY
W(SA)
SciTegic.value.DoubleValue
1.877

@<SCITEGIC>MOL_PROPERTY
Valence
SciTegic.value.DoubleValue
2.149

@<SCITEGIC>MOL_PROPERTY
Coulomb
SciTegic.value.DoubleValue
45.035

@<SCITEGIC>MOL_PROPERTY
VdW
SciTegic.value.DoubleValue
0.378

@<SCITEGIC>MOL_PROPERTY
VdW6
SciTegic.value.DoubleValue
-5.599

@<SCITEGIC>MOL_PROPERTY
VdW12
SciTegic.value.DoubleValue
5.978

@<SCITEGIC>MOL_PROPERTY
Bond
SciTegic.value.DoubleValue
0.185

@<SCITEGIC>MOL_PROPERTY
Angle
SciTegic.value.DoubleValue
0.935

@<SCITEGIC>MOL_PROPERTY
Pdih
SciTegic.value.DoubleValue
1.028

@<SCITEGIC>MOL_PROPERTY
Idih
SciTegic.value.DoubleValue
0.000

@<SCITEGIC>MOL_PROPERTY
Tether
SciTegic.value.DoubleValue
0.000

@<TRIPOS>MOLECULE
guest-s11_confgen4.mol2 : confsearch ligand conformer 253
          20          19           1
SMALL
USER_CHARGES
 
@<TRIPOS>ATOM
       1    N1      22.224944   20.285414   22.121334 N.4        1 MOL1        -0.5919
       2    H1      22.803845   20.538754   22.928045 H          1 MOL1         0.3682
       3    H2      22.396645   19.295254   21.924394 H          1 MOL1         0.3682
       4    H3      22.581832   20.816256   21.319970 H          1 MOL1         0.3682
       5    C1      20.755347   20.563691   22.371536 C.3        1 MOL1         0.0252
       6    H4      20.204789   20.301670   21.466687 H          1 MOL1         0.0971
       7    H5      20.647450   21.640051   22.530697 H          1 MOL1         0.0971
       8    C2      20.176822   19.811887   23.589244 C.3        1 MOL1        -0.1369
       9    H6      20.762835   20.094736   24.473780 H          1 MOL1         0.0997
      10    H7      19.154499   20.163359   23.781451 H          1 MOL1         0.0997
      11    C3      20.179539   18.264839   23.459024 C.3        1 MOL1        -0.1329
      12    H8      20.159532   17.841895   24.472998 H          1 MOL1         0.0997
      13    H9      21.120590   17.915060   23.015402 H          1 MOL1         0.0997
      14    C4      18.975423   17.668862   22.685106 C.3        1 MOL1        -0.1305
      15    H10     19.039103   16.573023   22.740147 H          1 MOL1         0.0997
      16    H11     18.038266   17.942963   23.189472 H          1 MOL1         0.0997
      17    C5      18.898356   18.081394   21.198563 C.3        1 MOL1        -0.2320
      18    H12     19.859158   17.926391   20.691028 H          1 MOL1         0.1008
      19    H13     18.142343   17.482195   20.674795 H          1 MOL1         0.1008
      20    H14     18.607972   19.133066   21.090316 H          1 MOL1         0.1008
@<TRIPOS>BOND
    1     1     2    1
    2     1     3    1
    3     1     4    1
    4     1     5    1
    5     5     6    1
    6     5     7    1
    7     5     8    1
    8     8     9    1
    9     8    10    1
   10     8    11    1
   11    11    12    1
   12    11    13    1
   13    11    14    1
   14    14    15    1
   15    14    16    1
   16    14    17    1
   17    17    18    1
   18    17    19    1
   19    17    20    1
@<TRIPOS>SUBSTRUCTURE
       1 MOL1            1 RESIDUE      1      MOL     
@<SCITEGIC>MOL_PROPERTY
VConf Rank
SciTegic.value.IntegerValue
253

@<SCITEGIC>MOL_PROPERTY
Conf_Id
SciTegic.value.IntegerValue
80

@<SCITEGIC>MOL_PROPERTY
Delta U+W
SciTegic.value.DoubleValue
2.920

@<SCITEGIC>MOL_PROPERTY
U+W
SciTegic.value.DoubleValue
-8.857

@<SCITEGIC>MOL_PROPERTY
Grad RMS
SciTegic.value.DoubleValue
0.000000

@<SCITEGIC>MOL_PROPERTY
U
SciTegic.value.DoubleValue
49.434

@<SCITEGIC>MOL_PROPERTY
W
SciTegic.value.DoubleValue
-58.292

@<SCITEGIC>MOL_PROPERTY
W(PB)
SciTegic.value.DoubleValue
-60.170

@<SCITEGIC>MOL_PROPERTY
W(SA)
SciTegic.value.DoubleValue
1.879

@<SCITEGIC>MOL_PROPERTY
Valence
SciTegic.value.DoubleValue
3.798

@<SCITEGIC>MOL_PROPERTY
Coulomb
SciTegic.value.DoubleValue
45.253

@<SCITEGIC>MOL_PROPERTY
VdW
SciTegic.value.DoubleValue
0.384

@<SCITEGIC>MOL_PROPERTY
VdW6
SciTegic.value.DoubleValue
-5.595

@<SCITEGIC>MOL_PROPERTY
VdW12
SciTegic.value.DoubleValue
5.979

@<SCITEGIC>MOL_PROPERTY
Bond
SciTegic.value.DoubleValue
0.198

@<SCITEGIC>MOL_PROPERTY
Angle
SciTegic.value.DoubleValue
1.368

@<SCITEGIC>MOL_PROPERTY
Pdih
SciTegic.value.DoubleValue
2.231

@<SCITEGIC>MOL_PROPERTY
Idih
SciTegic.value.DoubleValue
0.000

@<SCITEGIC>MOL_PROPERTY
Tether
SciTegic.value.DoubleValue
0.000

@<TRIPOS>MOLECULE
guest-s11_confgen4.mol2 : confsearch ligand conformer 254
          20          19           1
SMALL
USER_CHARGES
 
@<TRIPOS>ATOM
       1    N1      21.756392   19.759533   20.840102 N.4        1 MOL1        -0.5919
       2    H1      22.341256   20.589969   20.975752 H          1 MOL1         0.3682
       3    H2      22.164507   19.231522   20.061647 H          1 MOL1         0.3682
       4    H3      20.835908   20.084655   20.530758 H          1 MOL1         0.3682
       5    C1      21.663871   18.922200   22.101082 C.3        1 MOL1         0.0252
       6    H4      22.673685   18.579266   22.342316 H          1 MOL1         0.0971
       7    H5      21.055973   18.044099   21.877664 H          1 MOL1         0.0971
       8    C2      21.084832   19.682366   23.313348 C.3        1 MOL1        -0.1369
       9    H6      21.171622   19.055676   24.210758 H          1 MOL1         0.0997
      10    H7      21.717452   20.560688   23.498175 H          1 MOL1         0.0997
      11    C3      19.613915   20.149717   23.145084 C.3        1 MOL1        -0.1329
      12    H8      19.447682   20.550426   22.136859 H          1 MOL1         0.0997
      13    H9      19.449807   20.995940   23.826553 H          1 MOL1         0.0997
      14    C4      18.542684   19.077569   23.472201 C.3        1 MOL1        -0.1305
      15    H10     18.653609   18.748808   24.514983 H          1 MOL1         0.0997
      16    H11     17.552245   19.549609   23.407728 H          1 MOL1         0.0997
      17    C5      18.560149   17.845583   22.540626 C.3        1 MOL1        -0.2320
      18    H12     19.433703   17.211584   22.732986 H          1 MOL1         0.1008
      19    H13     17.669048   17.227073   22.708893 H          1 MOL1         0.1008
      20    H14     18.566190   18.143968   21.484364 H          1 MOL1         0.1008
@<TRIPOS>BOND
    1     1     2    1
    2     1     3    1
    3     1     4    1
    4     1     5    1
    5     5     6    1
    6     5     7    1
    7     5     8    1
    8     8     9    1
    9     8    10    1
   10     8    11    1
   11    11    12    1
   12    11    13    1
   13    11    14    1
   14    14    15    1
   15    14    16    1
   16    14    17    1
   17    17    18    1
   18    17    19    1
   19    17    20    1
@<TRIPOS>SUBSTRUCTURE
       1 MOL1            1 RESIDUE      1      MOL     
@<SCITEGIC>MOL_PROPERTY
VConf Rank
SciTegic.value.IntegerValue
254

@<SCITEGIC>MOL_PROPERTY
Conf_Id
SciTegic.value.IntegerValue
65

@<SCITEGIC>MOL_PROPERTY
Delta U+W
SciTegic.value.DoubleValue
2.949

@<SCITEGIC>MOL_PROPERTY
U+W
SciTegic.value.DoubleValue
-8.829

@<SCITEGIC>MOL_PROPERTY
Grad RMS
SciTegic.value.DoubleValue
0.000000

@<SCITEGIC>MOL_PROPERTY
U
SciTegic.value.DoubleValue
49.435

@<SCITEGIC>MOL_PROPERTY
W
SciTegic.value.DoubleValue
-58.263

@<SCITEGIC>MOL_PROPERTY
W(PB)
SciTegic.value.DoubleValue
-60.125

@<SCITEGIC>MOL_PROPERTY
W(SA)
SciTegic.value.DoubleValue
1.862

@<SCITEGIC>MOL_PROPERTY
Valence
SciTegic.value.DoubleValue
3.797

@<SCITEGIC>MOL_PROPERTY
Coulomb
SciTegic.value.DoubleValue
45.253

@<SCITEGIC>MOL_PROPERTY
VdW
SciTegic.value.DoubleValue
0.384

@<SCITEGIC>MOL_PROPERTY
VdW6
SciTegic.value.DoubleValue
-5.596

@<SCITEGIC>MOL_PROPERTY
VdW12
SciTegic.value.DoubleValue
5.980

@<SCITEGIC>MOL_PROPERTY
Bond
SciTegic.value.DoubleValue
0.198

@<SCITEGIC>MOL_PROPERTY
Angle
SciTegic.value.DoubleValue
1.369

@<SCITEGIC>MOL_PROPERTY
Pdih
SciTegic.value.DoubleValue
2.230

@<SCITEGIC>MOL_PROPERTY
Idih
SciTegic.value.DoubleValue
0.000

@<SCITEGIC>MOL_PROPERTY
Tether
SciTegic.value.DoubleValue
0.000

@<TRIPOS>MOLECULE
guest-s11_confgen4.mol2 : confsearch ligand conformer 255
          20          19           1
SMALL
USER_CHARGES
 
@<TRIPOS>ATOM
       1    N1      20.573841   19.993852   24.215197 N.4        1 MOL1        -0.5919
       2    H1      21.370353   20.469854   24.651858 H          1 MOL1         0.3682
       3    H2      20.256980   20.579417   23.436456 H          1 MOL1         0.3682
       4    H3      19.820254   19.975845   24.909595 H          1 MOL1         0.3682
       5    C1      20.939214   18.599111   23.745350 C.3        1 MOL1         0.0252
       6    H4      21.262820   18.039531   24.627205 H          1 MOL1         0.0971
       7    H5      21.787377   18.671052   23.059314 H          1 MOL1         0.0971
       8    C2      19.779226   17.842525   23.066811 C.3        1 MOL1        -0.1369
       9    H6      19.990050   16.767821   23.146657 H          1 MOL1         0.0997
      10    H7      18.849704   18.006544   23.627966 H          1 MOL1         0.0997
      11    C3      19.563371   18.172125   21.565268 C.3        1 MOL1        -0.1329
      12    H8      18.750794   17.528016   21.201446 H          1 MOL1         0.0997
      13    H9      20.450468   17.879772   20.986429 H          1 MOL1         0.0997
      14    C4      19.185743   19.642732   21.253446 C.3        1 MOL1        -0.1305
      15    H10     18.479016   19.651548   20.411592 H          1 MOL1         0.0997
      16    H11     18.643339   20.087771   22.098432 H          1 MOL1         0.0997
      17    C5      20.402992   20.511824   20.857462 C.3        1 MOL1        -0.2320
      18    H12     21.191822   20.499985   21.617200 H          1 MOL1         0.1008
      19    H13     20.845141   20.151996   19.919193 H          1 MOL1         0.1008
      20    H14     20.098920   21.554896   20.700230 H          1 MOL1         0.1008
@<TRIPOS>BOND
    1     1     2    1
    2     1     3    1
    3     1     4    1
    4     1     5    1
    5     5     6    1
    6     5     7    1
    7     5     8    1
    8     8     9    1
    9     8    10    1
   10     8    11    1
   11    11    12    1
   12    11    13    1
   13    11    14    1
   14    14    15    1
   15    14    16    1
   16    14    17    1
   17    17    18    1
   18    17    19    1
   19    17    20    1
@<TRIPOS>SUBSTRUCTURE
       1 MOL1            1 RESIDUE      1      MOL     
@<SCITEGIC>MOL_PROPERTY
VConf Rank
SciTegic.value.IntegerValue
255

@<SCITEGIC>MOL_PROPERTY
Conf_Id
SciTegic.value.IntegerValue
77

@<SCITEGIC>MOL_PROPERTY
Delta U+W
SciTegic.value.DoubleValue
5.366

@<SCITEGIC>MOL_PROPERTY
U+W
SciTegic.value.DoubleValue
-6.412

@<SCITEGIC>MOL_PROPERTY
Grad RMS
SciTegic.value.DoubleValue
0.000000

@<SCITEGIC>MOL_PROPERTY
U
SciTegic.value.DoubleValue
51.542

@<SCITEGIC>MOL_PROPERTY
W
SciTegic.value.DoubleValue
-57.954

@<SCITEGIC>MOL_PROPERTY
W(PB)
SciTegic.value.DoubleValue
-59.811

@<SCITEGIC>MOL_PROPERTY
W(SA)
SciTegic.value.DoubleValue
1.857

@<SCITEGIC>MOL_PROPERTY
Valence
SciTegic.value.DoubleValue
5.347

@<SCITEGIC>MOL_PROPERTY
Coulomb
SciTegic.value.DoubleValue
45.870

@<SCITEGIC>MOL_PROPERTY
VdW
SciTegic.value.DoubleValue
0.325

@<SCITEGIC>MOL_PROPERTY
VdW6
SciTegic.value.DoubleValue
-6.161

@<SCITEGIC>MOL_PROPERTY
VdW12
SciTegic.value.DoubleValue
6.486

@<SCITEGIC>MOL_PROPERTY
Bond
SciTegic.value.DoubleValue
0.201

@<SCITEGIC>MOL_PROPERTY
Angle
SciTegic.value.DoubleValue
1.484

@<SCITEGIC>MOL_PROPERTY
Pdih
SciTegic.value.DoubleValue
3.662

@<SCITEGIC>MOL_PROPERTY
Idih
SciTegic.value.DoubleValue
0.000

@<SCITEGIC>MOL_PROPERTY
Tether
SciTegic.value.DoubleValue
0.000

@<TRIPOS>MOLECULE
guest-s11_confgen4.mol2 : confsearch ligand conformer 256
          20          19           1
SMALL
USER_CHARGES
 
@<TRIPOS>ATOM
       1    N1      19.298858   19.026015   20.702161 N.4        1 MOL1        -0.5919
       2    H1      19.844513   18.629685   19.930417 H          1 MOL1         0.3682
       3    H2      19.155799   18.279603   21.389278 H          1 MOL1         0.3682
       4    H3      18.378993   19.272078   20.321392 H          1 MOL1         0.3682
       5    C1      19.990727   20.224082   21.323058 C.3        1 MOL1         0.0252
       6    H4      19.338828   20.645569   22.092850 H          1 MOL1         0.0971
       7    H5      20.108321   20.970184   20.532474 H          1 MOL1         0.0971
       8    C2      21.374561   19.906111   21.924977 C.3        1 MOL1        -0.1369
       9    H6      21.929490   19.240798   21.250275 H          1 MOL1         0.0997
      10    H7      21.947144   20.842530   21.957824 H          1 MOL1         0.0997
      11    C3      21.351465   19.314995   23.360217 C.3        1 MOL1        -0.1329
      12    H8      20.915370   20.043153   24.058122 H          1 MOL1         0.0997
      13    H9      22.395182   19.190743   23.680753 H          1 MOL1         0.0997
      14    C4      20.638961   17.946172   23.505758 C.3        1 MOL1        -0.1305
      15    H10     20.711077   17.373973   22.571066 H          1 MOL1         0.0997
      16    H11     21.175178   17.350864   24.258313 H          1 MOL1         0.0997
      17    C5      19.166966   18.073094   23.965044 C.3        1 MOL1        -0.2320
      18    H12     18.686420   17.086703   24.000945 H          1 MOL1         0.1008
      19    H13     19.113186   18.503247   24.973705 H          1 MOL1         0.1008
      20    H14     18.574835   18.714271   23.303329 H          1 MOL1         0.1008
@<TRIPOS>BOND
    1     1     2    1
    2     1     3    1
    3     1     4    1
    4     1     5    1
    5     5     6    1
    6     5     7    1
    7     5     8    1
    8     8     9    1
    9     8    10    1
   10     8    11    1
   11    11    12    1
   12    11    13    1
   13    11    14    1
   14    14    15    1
   15    14    16    1
   16    14    17    1
   17    17    18    1
   18    17    19    1
   19    17    20    1
@<TRIPOS>SUBSTRUCTURE
       1 MOL1            1 RESIDUE      1      MOL     
@<SCITEGIC>MOL_PROPERTY
VConf Rank
SciTegic.value.IntegerValue
256

@<SCITEGIC>MOL_PROPERTY
Conf_Id
SciTegic.value.IntegerValue
67

@<SCITEGIC>MOL_PROPERTY
Delta U+W
SciTegic.value.DoubleValue
5.353

@<SCITEGIC>MOL_PROPERTY
U+W
SciTegic.value.DoubleValue
-6.425

@<SCITEGIC>MOL_PROPERTY
Grad RMS
SciTegic.value.DoubleValue
0.000000

@<SCITEGIC>MOL_PROPERTY
U
SciTegic.value.DoubleValue
51.541

@<SCITEGIC>MOL_PROPERTY
W
SciTegic.value.DoubleValue
-57.966

@<SCITEGIC>MOL_PROPERTY
W(PB)
SciTegic.value.DoubleValue
-59.821

@<SCITEGIC>MOL_PROPERTY
W(SA)
SciTegic.value.DoubleValue
1.855

@<SCITEGIC>MOL_PROPERTY
Valence
SciTegic.value.DoubleValue
5.347

@<SCITEGIC>MOL_PROPERTY
Coulomb
SciTegic.value.DoubleValue
45.870

@<SCITEGIC>MOL_PROPERTY
VdW
SciTegic.value.DoubleValue
0.325

@<SCITEGIC>MOL_PROPERTY
VdW6
SciTegic.value.DoubleValue
-6.161

@<SCITEGIC>MOL_PROPERTY
VdW12
SciTegic.value.DoubleValue
6.486

@<SCITEGIC>MOL_PROPERTY
Bond
SciTegic.value.DoubleValue
0.201

@<SCITEGIC>MOL_PROPERTY
Angle
SciTegic.value.DoubleValue
1.485

@<SCITEGIC>MOL_PROPERTY
Pdih
SciTegic.value.DoubleValue
3.662

@<SCITEGIC>MOL_PROPERTY
Idih
SciTegic.value.DoubleValue
0.000

@<SCITEGIC>MOL_PROPERTY
Tether
SciTegic.value.DoubleValue
0.000

@<TRIPOS>MOLECULE
guest-s11_confgen4.mol2 : confsearch ligand conformer 257
          20          19           1
SMALL
USER_CHARGES
 
@<TRIPOS>ATOM
       1    N1      17.672664   18.865789   24.497022 N.4        1 MOL1        -0.5919
       2    H1      17.178258   18.104418   24.021350 H          1 MOL1         0.3682
       3    H2      17.535352   18.726057   25.503611 H          1 MOL1         0.3682
       4    H3      17.192913   19.737112   24.249994 H          1 MOL1         0.3682
       5    C1      19.142254   18.904114   24.129158 C.3        1 MOL1         0.0252
       6    H4      19.594458   17.960706   24.446981 H          1 MOL1         0.0971
       7    H5      19.610171   19.715958   24.692611 H          1 MOL1         0.0971
       8    C2      19.383674   19.112668   22.623341 C.3        1 MOL1        -0.1369
       9    H6      18.898580   18.303965   22.060536 H          1 MOL1         0.0997
      10    H7      18.914240   20.053174   22.305302 H          1 MOL1         0.0997
      11    C3      20.892093   19.145636   22.291202 C.3        1 MOL1        -0.1329
      12    H8      21.359526   18.205345   22.615472 H          1 MOL1         0.0997
      13    H9      21.375162   19.952511   22.859876 H          1 MOL1         0.0997
      14    C4      21.146627   19.354533   20.781530 C.3        1 MOL1        -0.1305
      15    H10     20.666787   18.548301   20.208998 H          1 MOL1         0.0997
      16    H11     20.682514   20.295257   20.453378 H          1 MOL1         0.0997
      17    C5      22.654918   19.386708   20.454421 C.3        1 MOL1        -0.2320
      18    H12     23.141244   18.444800   20.739924 H          1 MOL1         0.1008
      19    H13     22.815283   19.535666   19.378717 H          1 MOL1         0.1008
      20    H14     23.157075   20.205472   20.986095 H          1 MOL1         0.1008
@<TRIPOS>BOND
    1     1     2    1
    2     1     3    1
    3     1     4    1
    4     1     5    1
    5     5     6    1
    6     5     7    1
    7     5     8    1
    8     8     9    1
    9     8    10    1
   10     8    11    1
   11    11    12    1
   12    11    13    1
   13    11    14    1
   14    14    15    1
   15    14    16    1
   16    14    17    1
   17    17    18    1
   18    17    19    1
   19    17    20    1
@<TRIPOS>SUBSTRUCTURE
       1 MOL1            1 RESIDUE      1      MOL     
@<SCITEGIC>MOL_PROPERTY
VConf Rank
SciTegic.value.IntegerValue
257

@<SCITEGIC>MOL_PROPERTY
Conf_Id
SciTegic.value.IntegerValue
72

@<SCITEGIC>MOL_PROPERTY
Delta U+W
SciTegic.value.DoubleValue
0.000

@<SCITEGIC>MOL_PROPERTY
U+W
SciTegic.value.DoubleValue
-11.778

@<SCITEGIC>MOL_PROPERTY
Grad RMS
SciTegic.value.DoubleValue
0.000000

@<SCITEGIC>MOL_PROPERTY
U
SciTegic.value.DoubleValue
45.772

@<SCITEGIC>MOL_PROPERTY
W
SciTegic.value.DoubleValue
-57.550

@<SCITEGIC>MOL_PROPERTY
W(PB)
SciTegic.value.DoubleValue
-59.511

@<SCITEGIC>MOL_PROPERTY
W(SA)
SciTegic.value.DoubleValue
1.961

@<SCITEGIC>MOL_PROPERTY
Valence
SciTegic.value.DoubleValue
1.299

@<SCITEGIC>MOL_PROPERTY
Coulomb
SciTegic.value.DoubleValue
44.177

@<SCITEGIC>MOL_PROPERTY
VdW
SciTegic.value.DoubleValue
0.297

@<SCITEGIC>MOL_PROPERTY
VdW6
SciTegic.value.DoubleValue
-3.490

@<SCITEGIC>MOL_PROPERTY
VdW12
SciTegic.value.DoubleValue
3.786

@<SCITEGIC>MOL_PROPERTY
Bond
SciTegic.value.DoubleValue
0.096

@<SCITEGIC>MOL_PROPERTY
Angle
SciTegic.value.DoubleValue
0.381

@<SCITEGIC>MOL_PROPERTY
Pdih
SciTegic.value.DoubleValue
0.822

@<SCITEGIC>MOL_PROPERTY
Idih
SciTegic.value.DoubleValue
0.000

@<SCITEGIC>MOL_PROPERTY
Tether
SciTegic.value.DoubleValue
0.000

@<TRIPOS>MOLECULE
guest-s11_confgen4.mol2 : confsearch ligand conformer 258
          20          19           1
SMALL
USER_CHARGES
 
@<TRIPOS>ATOM
       1    N1      21.485220   17.219669   20.673876 N.4        1 MOL1        -0.5919
       2    H1      21.736100   17.965819   20.017632 H          1 MOL1         0.3682
       3    H2      22.306099   17.047851   21.262942 H          1 MOL1         0.3682
       4    H3      21.336436   16.371616   20.116875 H          1 MOL1         0.3682
       5    C1      20.262584   17.575137   21.495690 C.3        1 MOL1         0.0252
       6    H4      20.035877   16.726945   22.147355 H          1 MOL1         0.0971
       7    H5      19.423112   17.714392   20.809103 H          1 MOL1         0.0971
       8    C2      20.452489   18.844575   22.345239 C.3        1 MOL1        -0.1369
       9    H6      21.306206   18.706348   23.021900 H          1 MOL1         0.0997
      10    H7      20.696823   19.684802   21.683132 H          1 MOL1         0.0997
      11    C3      19.182871   19.167715   23.167905 C.3        1 MOL1        -0.1329
      12    H8      18.910868   18.287229   23.766653 H          1 MOL1         0.0997
      13    H9      18.338671   19.351635   22.488870 H          1 MOL1         0.0997
      14    C4      19.354377   20.376556   24.119724 C.3        1 MOL1        -0.1305
      15    H10     18.449783   20.470607   24.736817 H          1 MOL1         0.0997
      16    H11     20.182700   20.186597   24.816627 H          1 MOL1         0.0997
      17    C5      19.593565   21.712591   23.379908 C.3        1 MOL1        -0.2320
      18    H12     18.792900   21.912332   22.655993 H          1 MOL1         0.1008
      19    H13     19.616993   22.547293   24.092422 H          1 MOL1         0.1008
      20    H14     20.550355   21.711189   22.843276 H          1 MOL1         0.1008
@<TRIPOS>BOND
    1     1     2    1
    2     1     3    1
    3     1     4    1
    4     1     5    1
    5     5     6    1
    6     5     7    1
    7     5     8    1
    8     8     9    1
    9     8    10    1
   10     8    11    1
   11    11    12    1
   12    11    13    1
   13    11    14    1
   14    14    15    1
   15    14    16    1
   16    14    17    1
   17    17    18    1
   18    17    19    1
   19    17    20    1
@<TRIPOS>SUBSTRUCTURE
       1 MOL1            1 RESIDUE      1      MOL     
@<SCITEGIC>MOL_PROPERTY
VConf Rank
SciTegic.value.IntegerValue
258

@<SCITEGIC>MOL_PROPERTY
Conf_Id
SciTegic.value.IntegerValue
42

@<SCITEGIC>MOL_PROPERTY
Delta U+W
SciTegic.value.DoubleValue
0.508

@<SCITEGIC>MOL_PROPERTY
U+W
SciTegic.value.DoubleValue
-11.270

@<SCITEGIC>MOL_PROPERTY
Grad RMS
SciTegic.value.DoubleValue
0.000000

@<SCITEGIC>MOL_PROPERTY
U
SciTegic.value.DoubleValue
46.486

@<SCITEGIC>MOL_PROPERTY
W
SciTegic.value.DoubleValue
-57.756

@<SCITEGIC>MOL_PROPERTY
W(PB)
SciTegic.value.DoubleValue
-59.705

@<SCITEGIC>MOL_PROPERTY
W(SA)
SciTegic.value.DoubleValue
1.949

@<SCITEGIC>MOL_PROPERTY
Valence
SciTegic.value.DoubleValue
1.806

@<SCITEGIC>MOL_PROPERTY
Coulomb
SciTegic.value.DoubleValue
44.248

@<SCITEGIC>MOL_PROPERTY
VdW
SciTegic.value.DoubleValue
0.433

@<SCITEGIC>MOL_PROPERTY
VdW6
SciTegic.value.DoubleValue
-4.089

@<SCITEGIC>MOL_PROPERTY
VdW12
SciTegic.value.DoubleValue
4.522

@<SCITEGIC>MOL_PROPERTY
Bond
SciTegic.value.DoubleValue
0.131

@<SCITEGIC>MOL_PROPERTY
Angle
SciTegic.value.DoubleValue
0.628

@<SCITEGIC>MOL_PROPERTY
Pdih
SciTegic.value.DoubleValue
1.047

@<SCITEGIC>MOL_PROPERTY
Idih
SciTegic.value.DoubleValue
0.000

@<SCITEGIC>MOL_PROPERTY
Tether
SciTegic.value.DoubleValue
0.000

@<TRIPOS>MOLECULE
guest-s11_confgen4.mol2 : confsearch ligand conformer 259
          20          19           1
SMALL
USER_CHARGES
 
@<TRIPOS>ATOM
       1    N1      22.148254   16.825968   22.188723 N.4        1 MOL1        -0.5919
       2    H1      21.909828   16.556516   21.229081 H          1 MOL1         0.3682
       3    H2      22.923753   17.493454   22.130442 H          1 MOL1         0.3682
       4    H3      22.512846   15.986461   22.651197 H          1 MOL1         0.3682
       5    C1      20.957708   17.403512   22.927387 C.3        1 MOL1         0.0252
       6    H4      21.274858   17.639223   23.946879 H          1 MOL1         0.0971
       7    H5      20.185237   16.631369   22.978161 H          1 MOL1         0.0971
       8    C2      20.384771   18.665958   22.258624 C.3        1 MOL1        -0.1369
       9    H6      21.172849   19.427007   22.196938 H          1 MOL1         0.0997
      10    H7      20.082299   18.428592   21.230042 H          1 MOL1         0.0997
      11    C3      19.171913   19.218966   23.043666 C.3        1 MOL1        -0.1329
      12    H8      19.484953   19.499762   24.058923 H          1 MOL1         0.0997
      13    H9      18.426899   18.419588   23.160680 H          1 MOL1         0.0997
      14    C4      18.492022   20.429237   22.358349 C.3        1 MOL1        -0.1305
      15    H10     18.155863   20.145777   21.351113 H          1 MOL1         0.0997
      16    H11     17.585417   20.690254   22.922154 H          1 MOL1         0.0997
      17    C5      19.400603   21.676800   22.271163 C.3        1 MOL1        -0.2320
      18    H12     20.263347   21.502880   21.616297 H          1 MOL1         0.1008
      19    H13     18.843607   22.529740   21.862262 H          1 MOL1         0.1008
      20    H14     19.773312   21.964348   23.262837 H          1 MOL1         0.1008
@<TRIPOS>BOND
    1     1     2    1
    2     1     3    1
    3     1     4    1
    4     1     5    1
    5     5     6    1
    6     5     7    1
    7     5     8    1
    8     8     9    1
    9     8    10    1
   10     8    11    1
   11    11    12    1
   12    11    13    1
   13    11    14    1
   14    14    15    1
   15    14    16    1
   16    14    17    1
   17    17    18    1
   18    17    19    1
   19    17    20    1
@<TRIPOS>SUBSTRUCTURE
       1 MOL1            1 RESIDUE      1      MOL     
@<SCITEGIC>MOL_PROPERTY
VConf Rank
SciTegic.value.IntegerValue
259

@<SCITEGIC>MOL_PROPERTY
Conf_Id
SciTegic.value.IntegerValue
41

@<SCITEGIC>MOL_PROPERTY
Delta U+W
SciTegic.value.DoubleValue
0.515

@<SCITEGIC>MOL_PROPERTY
U+W
SciTegic.value.DoubleValue
-11.263

@<SCITEGIC>MOL_PROPERTY
Grad RMS
SciTegic.value.DoubleValue
0.000000

@<SCITEGIC>MOL_PROPERTY
U
SciTegic.value.DoubleValue
46.486

@<SCITEGIC>MOL_PROPERTY
W
SciTegic.value.DoubleValue
-57.749

@<SCITEGIC>MOL_PROPERTY
W(PB)
SciTegic.value.DoubleValue
-59.685

@<SCITEGIC>MOL_PROPERTY
W(SA)
SciTegic.value.DoubleValue
1.936

@<SCITEGIC>MOL_PROPERTY
Valence
SciTegic.value.DoubleValue
1.806

@<SCITEGIC>MOL_PROPERTY
Coulomb
SciTegic.value.DoubleValue
44.248

@<SCITEGIC>MOL_PROPERTY
VdW
SciTegic.value.DoubleValue
0.433

@<SCITEGIC>MOL_PROPERTY
VdW6
SciTegic.value.DoubleValue
-4.089

@<SCITEGIC>MOL_PROPERTY
VdW12
SciTegic.value.DoubleValue
4.522

@<SCITEGIC>MOL_PROPERTY
Bond
SciTegic.value.DoubleValue
0.131

@<SCITEGIC>MOL_PROPERTY
Angle
SciTegic.value.DoubleValue
0.628

@<SCITEGIC>MOL_PROPERTY
Pdih
SciTegic.value.DoubleValue
1.047

@<SCITEGIC>MOL_PROPERTY
Idih
SciTegic.value.DoubleValue
0.000

@<SCITEGIC>MOL_PROPERTY
Tether
SciTegic.value.DoubleValue
0.000

@<TRIPOS>MOLECULE
guest-s11_confgen4.mol2 : confsearch ligand conformer 260
          20          19           1
SMALL
USER_CHARGES
 
@<TRIPOS>ATOM
       1    N1      22.349909   17.781122   23.456376 N.4        1 MOL1        -0.5919
       2    H1      22.779153   17.088526   24.078920 H          1 MOL1         0.3682
       3    H2      22.190230   17.315926   22.558025 H          1 MOL1         0.3682
       4    H3      23.049346   18.513234   23.298286 H          1 MOL1         0.3682
       5    C1      21.066674   18.342046   24.038473 C.3        1 MOL1         0.0252
       6    H4      21.308788   18.780598   25.010405 H          1 MOL1         0.0971
       7    H5      20.376183   17.510537   24.203567 H          1 MOL1         0.0971
       8    C2      20.392399   19.408088   23.152596 C.3        1 MOL1        -0.1369
       9    H6      19.548370   19.829088   23.712936 H          1 MOL1         0.0997
      10    H7      21.094204   20.233515   22.974192 H          1 MOL1         0.0997
      11    C3      19.891253   18.834988   21.802957 C.3        1 MOL1        -0.1329
      12    H8      19.172407   18.025045   21.989293 H          1 MOL1         0.0997
      13    H9      20.733298   18.382453   21.262791 H          1 MOL1         0.0997
      14    C4      19.243710   19.899229   20.883685 C.3        1 MOL1        -0.1305
      15    H10     19.963609   20.705072   20.683118 H          1 MOL1         0.0997
      16    H11     19.022405   19.436873   19.911475 H          1 MOL1         0.0997
      17    C5      17.938975   20.498034   21.457150 C.3        1 MOL1        -0.2320
      18    H12     18.127284   21.079719   22.367892 H          1 MOL1         0.1008
      19    H13     17.472747   21.172218   20.727043 H          1 MOL1         0.1008
      20    H14     17.213585   19.709438   21.695748 H          1 MOL1         0.1008
@<TRIPOS>BOND
    1     1     2    1
    2     1     3    1
    3     1     4    1
    4     1     5    1
    5     5     6    1
    6     5     7    1
    7     5     8    1
    8     8     9    1
    9     8    10    1
   10     8    11    1
   11    11    12    1
   12    11    13    1
   13    11    14    1
   14    14    15    1
   15    14    16    1
   16    14    17    1
   17    17    18    1
   18    17    19    1
   19    17    20    1
@<TRIPOS>SUBSTRUCTURE
       1 MOL1            1 RESIDUE      1      MOL     
@<SCITEGIC>MOL_PROPERTY
VConf Rank
SciTegic.value.IntegerValue
260

@<SCITEGIC>MOL_PROPERTY
Conf_Id
SciTegic.value.IntegerValue
33

@<SCITEGIC>MOL_PROPERTY
Delta U+W
SciTegic.value.DoubleValue
0.703

@<SCITEGIC>MOL_PROPERTY
U+W
SciTegic.value.DoubleValue
-11.075

@<SCITEGIC>MOL_PROPERTY
Grad RMS
SciTegic.value.DoubleValue
0.000000

@<SCITEGIC>MOL_PROPERTY
U
SciTegic.value.DoubleValue
47.080

@<SCITEGIC>MOL_PROPERTY
W
SciTegic.value.DoubleValue
-58.154

@<SCITEGIC>MOL_PROPERTY
W(PB)
SciTegic.value.DoubleValue
-60.053

@<SCITEGIC>MOL_PROPERTY
W(SA)
SciTegic.value.DoubleValue
1.899

@<SCITEGIC>MOL_PROPERTY
Valence
SciTegic.value.DoubleValue
1.943

@<SCITEGIC>MOL_PROPERTY
Coulomb
SciTegic.value.DoubleValue
44.572

@<SCITEGIC>MOL_PROPERTY
VdW
SciTegic.value.DoubleValue
0.565

@<SCITEGIC>MOL_PROPERTY
VdW6
SciTegic.value.DoubleValue
-4.575

@<SCITEGIC>MOL_PROPERTY
VdW12
SciTegic.value.DoubleValue
5.139

@<SCITEGIC>MOL_PROPERTY
Bond
SciTegic.value.DoubleValue
0.158

@<SCITEGIC>MOL_PROPERTY
Angle
SciTegic.value.DoubleValue
0.700

@<SCITEGIC>MOL_PROPERTY
Pdih
SciTegic.value.DoubleValue
1.085

@<SCITEGIC>MOL_PROPERTY
Idih
SciTegic.value.DoubleValue
0.000

@<SCITEGIC>MOL_PROPERTY
Tether
SciTegic.value.DoubleValue
0.000

@<TRIPOS>MOLECULE
guest-s11_confgen4.mol2 : confsearch ligand conformer 261
          20          19           1
SMALL
USER_CHARGES
 
@<TRIPOS>ATOM
       1    N1      19.989229   21.809181   21.812019 N.4        1 MOL1        -0.5919
       2    H1      20.060749   22.580443   21.140052 H          1 MOL1         0.3682
       3    H2      19.290945   22.085642   22.509272 H          1 MOL1         0.3682
       4    H3      20.890954   21.749178   22.293922 H          1 MOL1         0.3682
       5    C1      19.623207   20.503419   21.132920 C.3        1 MOL1         0.0252
       6    H4      20.392651   20.279623   20.389069 H          1 MOL1         0.0971
       7    H5      18.677176   20.658392   20.606983 H          1 MOL1         0.0971
       8    C2      19.477792   19.314168   22.102660 C.3        1 MOL1        -0.1369
       9    H6      18.716900   19.548825   22.858749 H          1 MOL1         0.0997
      10    H7      19.099665   18.456726   21.532202 H          1 MOL1         0.0997
      11    C3      20.813508   18.936872   22.791594 C.3        1 MOL1        -0.1329
      12    H8      21.205769   19.809161   23.330901 H          1 MOL1         0.0997
      13    H9      21.563213   18.681567   22.029866 H          1 MOL1         0.0997
      14    C4      20.679662   17.767356   23.797224 C.3        1 MOL1        -0.1305
      15    H10     21.638103   17.641342   24.320152 H          1 MOL1         0.0997
      16    H11     19.940578   18.023428   24.569266 H          1 MOL1         0.0997
      17    C5      20.295548   16.424713   23.134254 C.3        1 MOL1        -0.2320
      18    H12     21.002039   16.161443   22.336404 H          1 MOL1         0.1008
      19    H13     20.308412   15.613844   23.874034 H          1 MOL1         0.1008
      20    H14     19.287353   16.460413   22.703511 H          1 MOL1         0.1008
@<TRIPOS>BOND
    1     1     2    1
    2     1     3    1
    3     1     4    1
    4     1     5    1
    5     5     6    1
    6     5     7    1
    7     5     8    1
    8     8     9    1
    9     8    10    1
   10     8    11    1
   11    11    12    1
   12    11    13    1
   13    11    14    1
   14    14    15    1
   15    14    16    1
   16    14    17    1
   17    17    18    1
   18    17    19    1
   19    17    20    1
@<TRIPOS>SUBSTRUCTURE
       1 MOL1            1 RESIDUE      1      MOL     
@<SCITEGIC>MOL_PROPERTY
VConf Rank
SciTegic.value.IntegerValue
261

@<SCITEGIC>MOL_PROPERTY
Conf_Id
SciTegic.value.IntegerValue
24

@<SCITEGIC>MOL_PROPERTY
Delta U+W
SciTegic.value.DoubleValue
0.847

@<SCITEGIC>MOL_PROPERTY
U+W
SciTegic.value.DoubleValue
-10.931

@<SCITEGIC>MOL_PROPERTY
Grad RMS
SciTegic.value.DoubleValue
0.000000

@<SCITEGIC>MOL_PROPERTY
U
SciTegic.value.DoubleValue
47.080

@<SCITEGIC>MOL_PROPERTY
W
SciTegic.value.DoubleValue
-58.011

@<SCITEGIC>MOL_PROPERTY
W(PB)
SciTegic.value.DoubleValue
-59.914

@<SCITEGIC>MOL_PROPERTY
W(SA)
SciTegic.value.DoubleValue
1.903

@<SCITEGIC>MOL_PROPERTY
Valence
SciTegic.value.DoubleValue
1.943

@<SCITEGIC>MOL_PROPERTY
Coulomb
SciTegic.value.DoubleValue
44.572

@<SCITEGIC>MOL_PROPERTY
VdW
SciTegic.value.DoubleValue
0.565

@<SCITEGIC>MOL_PROPERTY
VdW6
SciTegic.value.DoubleValue
-4.575

@<SCITEGIC>MOL_PROPERTY
VdW12
SciTegic.value.DoubleValue
5.140

@<SCITEGIC>MOL_PROPERTY
Bond
SciTegic.value.DoubleValue
0.158

@<SCITEGIC>MOL_PROPERTY
Angle
SciTegic.value.DoubleValue
0.700

@<SCITEGIC>MOL_PROPERTY
Pdih
SciTegic.value.DoubleValue
1.085

@<SCITEGIC>MOL_PROPERTY
Idih
SciTegic.value.DoubleValue
0.000

@<SCITEGIC>MOL_PROPERTY
Tether
SciTegic.value.DoubleValue
0.000

@<TRIPOS>MOLECULE
guest-s11_confgen4.mol2 : confsearch ligand conformer 262
          20          19           1
SMALL
USER_CHARGES
 
@<TRIPOS>ATOM
       1    N1      19.249439   21.807808   22.466847 N.4        1 MOL1        -0.5919
       2    H1      18.498619   22.201009   21.889653 H          1 MOL1         0.3682
       3    H2      18.877500   21.717691   23.417511 H          1 MOL1         0.3682
       4    H3      19.996101   22.508991   22.500707 H          1 MOL1         0.3682
       5    C1      19.742182   20.481928   21.923178 C.3        1 MOL1         0.0252
       6    H4      20.095514   20.645765   20.901565 H          1 MOL1         0.0971
       7    H5      18.891220   19.796694   21.887120 H          1 MOL1         0.0971
       8    C2      20.871280   19.863101   22.768645 C.3        1 MOL1        -0.1369
       9    H6      21.703776   20.576253   22.832868 H          1 MOL1         0.0997
      10    H7      20.520533   19.706656   23.796729 H          1 MOL1         0.0997
      11    C3      21.399341   18.530770   22.180392 C.3        1 MOL1        -0.1329
      12    H8      22.206576   18.152832   22.822885 H          1 MOL1         0.0997
      13    H9      21.859895   18.730349   21.202869 H          1 MOL1         0.0997
      14    C4      20.327108   17.424218   22.009852 C.3        1 MOL1        -0.1305
      15    H10     19.564066   17.743179   21.286797 H          1 MOL1         0.0997
      16    H11     20.805667   16.537564   21.570868 H          1 MOL1         0.0997
      17    C5      19.647579   17.017187   23.337095 C.3        1 MOL1        -0.2320
      18    H12     18.967787   16.170327   23.177049 H          1 MOL1         0.1008
      19    H13     20.391658   16.713409   24.084785 H          1 MOL1         0.1008
      20    H14     19.055438   17.840560   23.755498 H          1 MOL1         0.1008
@<TRIPOS>BOND
    1     1     2    1
    2     1     3    1
    3     1     4    1
    4     1     5    1
    5     5     6    1
    6     5     7    1
    7     5     8    1
    8     8     9    1
    9     8    10    1
   10     8    11    1
   11    11    12    1
   12    11    13    1
   13    11    14    1
   14    14    15    1
   15    14    16    1
   16    14    17    1
   17    17    18    1
   18    17    19    1
   19    17    20    1
@<TRIPOS>SUBSTRUCTURE
       1 MOL1            1 RESIDUE      1      MOL     
@<SCITEGIC>MOL_PROPERTY
VConf Rank
SciTegic.value.IntegerValue
262

@<SCITEGIC>MOL_PROPERTY
Conf_Id
SciTegic.value.IntegerValue
64

@<SCITEGIC>MOL_PROPERTY
Delta U+W
SciTegic.value.DoubleValue
0.707

@<SCITEGIC>MOL_PROPERTY
U+W
SciTegic.value.DoubleValue
-11.070

@<SCITEGIC>MOL_PROPERTY
Grad RMS
SciTegic.value.DoubleValue
0.000000

@<SCITEGIC>MOL_PROPERTY
U
SciTegic.value.DoubleValue
47.077

@<SCITEGIC>MOL_PROPERTY
W
SciTegic.value.DoubleValue
-58.148

@<SCITEGIC>MOL_PROPERTY
W(PB)
SciTegic.value.DoubleValue
-60.054

@<SCITEGIC>MOL_PROPERTY
W(SA)
SciTegic.value.DoubleValue
1.906

@<SCITEGIC>MOL_PROPERTY
Valence
SciTegic.value.DoubleValue
2.039

@<SCITEGIC>MOL_PROPERTY
Coulomb
SciTegic.value.DoubleValue
44.655

@<SCITEGIC>MOL_PROPERTY
VdW
SciTegic.value.DoubleValue
0.383

@<SCITEGIC>MOL_PROPERTY
VdW6
SciTegic.value.DoubleValue
-4.912

@<SCITEGIC>MOL_PROPERTY
VdW12
SciTegic.value.DoubleValue
5.295

@<SCITEGIC>MOL_PROPERTY
Bond
SciTegic.value.DoubleValue
0.159

@<SCITEGIC>MOL_PROPERTY
Angle
SciTegic.value.DoubleValue
0.856

@<SCITEGIC>MOL_PROPERTY
Pdih
SciTegic.value.DoubleValue
1.024

@<SCITEGIC>MOL_PROPERTY
Idih
SciTegic.value.DoubleValue
0.000

@<SCITEGIC>MOL_PROPERTY
Tether
SciTegic.value.DoubleValue
0.000

@<TRIPOS>MOLECULE
guest-s11_confgen4.mol2 : confsearch ligand conformer 263
          20          19           1
SMALL
USER_CHARGES
 
@<TRIPOS>ATOM
       1    N1      18.624411   17.030233   23.451005 N.4        1 MOL1        -0.5919
       2    H1      18.208112   16.438682   22.725008 H          1 MOL1         0.3682
       3    H2      19.442873   16.531270   23.813466 H          1 MOL1         0.3682
       4    H3      17.944806   17.082998   24.217061 H          1 MOL1         0.3682
       5    C1      18.986126   18.403960   22.923405 C.3        1 MOL1         0.0252
       6    H4      19.393542   18.986135   23.754110 H          1 MOL1         0.0971
       7    H5      18.066983   18.887898   22.582289 H          1 MOL1         0.0971
       8    C2      20.006844   18.360093   21.770655 C.3        1 MOL1        -0.1369
       9    H6      20.926553   17.866262   22.109361 H          1 MOL1         0.0997
      10    H7      19.605257   17.739007   20.959027 H          1 MOL1         0.0997
      11    C3      20.336323   19.765339   21.207873 C.3        1 MOL1        -0.1329
      12    H8      19.428020   20.192083   20.760247 H          1 MOL1         0.0997
      13    H9      21.057183   19.659642   20.385406 H          1 MOL1         0.0997
      14    C4      20.897901   20.767973   22.248343 C.3        1 MOL1        -0.1305
      15    H10     21.076536   21.729573   21.747049 H          1 MOL1         0.0997
      16    H11     20.147806   20.968660   23.025426 H          1 MOL1         0.0997
      17    C5      22.214981   20.297568   22.906392 C.3        1 MOL1        -0.2320
      18    H12     22.975884   20.070263   22.148543 H          1 MOL1         0.1008
      19    H13     22.617990   21.080139   23.562191 H          1 MOL1         0.1008
      20    H14     22.061087   19.400855   23.519464 H          1 MOL1         0.1008
@<TRIPOS>BOND
    1     1     2    1
    2     1     3    1
    3     1     4    1
    4     1     5    1
    5     5     6    1
    6     5     7    1
    7     5     8    1
    8     8     9    1
    9     8    10    1
   10     8    11    1
   11    11    12    1
   12    11    13    1
   13    11    14    1
   14    14    15    1
   15    14    16    1
   16    14    17    1
   17    17    18    1
   18    17    19    1
   19    17    20    1
@<TRIPOS>SUBSTRUCTURE
       1 MOL1            1 RESIDUE      1      MOL     
@<SCITEGIC>MOL_PROPERTY
VConf Rank
SciTegic.value.IntegerValue
263

@<SCITEGIC>MOL_PROPERTY
Conf_Id
SciTegic.value.IntegerValue
22

@<SCITEGIC>MOL_PROPERTY
Delta U+W
SciTegic.value.DoubleValue
0.731

@<SCITEGIC>MOL_PROPERTY
U+W
SciTegic.value.DoubleValue
-11.047

@<SCITEGIC>MOL_PROPERTY
Grad RMS
SciTegic.value.DoubleValue
0.000000

@<SCITEGIC>MOL_PROPERTY
U
SciTegic.value.DoubleValue
47.078

@<SCITEGIC>MOL_PROPERTY
W
SciTegic.value.DoubleValue
-58.125

@<SCITEGIC>MOL_PROPERTY
W(PB)
SciTegic.value.DoubleValue
-60.031

@<SCITEGIC>MOL_PROPERTY
W(SA)
SciTegic.value.DoubleValue
1.906

@<SCITEGIC>MOL_PROPERTY
Valence
SciTegic.value.DoubleValue
2.039

@<SCITEGIC>MOL_PROPERTY
Coulomb
SciTegic.value.DoubleValue
44.655

@<SCITEGIC>MOL_PROPERTY
VdW
SciTegic.value.DoubleValue
0.383

@<SCITEGIC>MOL_PROPERTY
VdW6
SciTegic.value.DoubleValue
-4.913

@<SCITEGIC>MOL_PROPERTY
VdW12
SciTegic.value.DoubleValue
5.296

@<SCITEGIC>MOL_PROPERTY
Bond
SciTegic.value.DoubleValue
0.159

@<SCITEGIC>MOL_PROPERTY
Angle
SciTegic.value.DoubleValue
0.856

@<SCITEGIC>MOL_PROPERTY
Pdih
SciTegic.value.DoubleValue
1.024

@<SCITEGIC>MOL_PROPERTY
Idih
SciTegic.value.DoubleValue
0.000

@<SCITEGIC>MOL_PROPERTY
Tether
SciTegic.value.DoubleValue
0.000

@<TRIPOS>MOLECULE
guest-s11_confgen4.mol2 : confsearch ligand conformer 264
          20          19           1
SMALL
USER_CHARGES
 
@<TRIPOS>ATOM
       1    N1      19.490764   20.709752   24.695406 N.4        1 MOL1        -0.5919
       2    H1      20.021176   20.248031   25.440933 H          1 MOL1         0.3682
       3    H2      19.829521   21.675318   24.638513 H          1 MOL1         0.3682
       4    H3      18.515398   20.755141   25.008607 H          1 MOL1         0.3682
       5    C1      19.624450   19.983648   23.371959 C.3        1 MOL1         0.0252
       6    H4      19.015147   20.511474   22.633348 H          1 MOL1         0.0971
       7    H5      19.218473   18.978031   23.503049 H          1 MOL1         0.0971
       8    C2      21.078797   19.893506   22.876560 C.3        1 MOL1        -0.1369
       9    H6      21.510898   20.902996   22.864695 H          1 MOL1         0.0997
      10    H7      21.673302   19.310360   23.592304 H          1 MOL1         0.0997
      11    C3      21.223194   19.281575   21.460013 C.3        1 MOL1        -0.1329
      12    H8      22.282660   19.351879   21.176921 H          1 MOL1         0.0997
      13    H9      20.679080   19.892194   20.726233 H          1 MOL1         0.0997
      14    C4      20.794047   17.795826   21.343518 C.3        1 MOL1        -0.1305
      15    H10     21.373317   17.332316   20.532526 H          1 MOL1         0.0997
      16    H11     21.063598   17.248253   22.257436 H          1 MOL1         0.0997
      17    C5      19.293333   17.599917   21.023654 C.3        1 MOL1        -0.2320
      18    H12     18.645956   17.955878   21.831781 H          1 MOL1         0.1008
      19    H13     19.014089   18.130895   20.104367 H          1 MOL1         0.1008
      20    H14     19.071406   16.535621   20.871973 H          1 MOL1         0.1008
@<TRIPOS>BOND
    1     1     2    1
    2     1     3    1
    3     1     4    1
    4     1     5    1
    5     5     6    1
    6     5     7    1
    7     5     8    1
    8     8     9    1
    9     8    10    1
   10     8    11    1
   11    11    12    1
   12    11    13    1
   13    11    14    1
   14    14    15    1
   15    14    16    1
   16    14    17    1
   17    17    18    1
   18    17    19    1
   19    17    20    1
@<TRIPOS>SUBSTRUCTURE
       1 MOL1            1 RESIDUE      1      MOL     
@<SCITEGIC>MOL_PROPERTY
VConf Rank
SciTegic.value.IntegerValue
264

@<SCITEGIC>MOL_PROPERTY
Conf_Id
SciTegic.value.IntegerValue
61

@<SCITEGIC>MOL_PROPERTY
Delta U+W
SciTegic.value.DoubleValue
2.669

@<SCITEGIC>MOL_PROPERTY
U+W
SciTegic.value.DoubleValue
-9.108

@<SCITEGIC>MOL_PROPERTY
Grad RMS
SciTegic.value.DoubleValue
0.000000

@<SCITEGIC>MOL_PROPERTY
U
SciTegic.value.DoubleValue
48.916

@<SCITEGIC>MOL_PROPERTY
W
SciTegic.value.DoubleValue
-58.025

@<SCITEGIC>MOL_PROPERTY
W(PB)
SciTegic.value.DoubleValue
-59.935

@<SCITEGIC>MOL_PROPERTY
W(SA)
SciTegic.value.DoubleValue
1.911

@<SCITEGIC>MOL_PROPERTY
Valence
SciTegic.value.DoubleValue
3.785

@<SCITEGIC>MOL_PROPERTY
Coulomb
SciTegic.value.DoubleValue
44.716

@<SCITEGIC>MOL_PROPERTY
VdW
SciTegic.value.DoubleValue
0.415

@<SCITEGIC>MOL_PROPERTY
VdW6
SciTegic.value.DoubleValue
-4.836

@<SCITEGIC>MOL_PROPERTY
VdW12
SciTegic.value.DoubleValue
5.251

@<SCITEGIC>MOL_PROPERTY
Bond
SciTegic.value.DoubleValue
0.175

@<SCITEGIC>MOL_PROPERTY
Angle
SciTegic.value.DoubleValue
1.195

@<SCITEGIC>MOL_PROPERTY
Pdih
SciTegic.value.DoubleValue
2.415

@<SCITEGIC>MOL_PROPERTY
Idih
SciTegic.value.DoubleValue
0.000

@<SCITEGIC>MOL_PROPERTY
Tether
SciTegic.value.DoubleValue
0.000

@<TRIPOS>MOLECULE
guest-s11_confgen4.mol2 : confsearch ligand conformer 265
          20          19           1
SMALL
USER_CHARGES
 
@<TRIPOS>ATOM
       1    N1      18.016509   18.392713   21.835945 N.4        1 MOL1        -0.5919
       2    H1      17.288172   18.458256   21.117008 H          1 MOL1         0.3682
       3    H2      17.607798   17.884615   22.626574 H          1 MOL1         0.3682
       4    H3      18.209256   19.345245   22.156191 H          1 MOL1         0.3682
       5    C1      19.263746   17.707479   21.311135 C.3        1 MOL1         0.0252
       6    H4      19.622061   18.257412   20.436766 H          1 MOL1         0.0971
       7    H5      18.963383   16.708875   20.982301 H          1 MOL1         0.0971
       8    C2      20.399573   17.572888   22.347116 C.3        1 MOL1        -0.1369
       9    H6      19.988325   17.271822   23.319767 H          1 MOL1         0.0997
      10    H7      21.047677   16.746608   22.026035 H          1 MOL1         0.0997
      11    C3      21.284040   18.836802   22.502060 C.3        1 MOL1        -0.1329
      12    H8      21.733953   19.089953   21.532029 H          1 MOL1         0.0997
      13    H9      22.120009   18.588876   23.170766 H          1 MOL1         0.0997
      14    C4      20.543826   20.072533   23.065412 C.3        1 MOL1        -0.1305
      15    H10     19.801710   20.429321   22.340279 H          1 MOL1         0.0997
      16    H11     20.001703   19.798201   23.981265 H          1 MOL1         0.0997
      17    C5      21.520349   21.226727   23.377270 C.3        1 MOL1        -0.2320
      18    H12     20.978715   22.098538   23.766666 H          1 MOL1         0.1008
      19    H13     22.259899   20.926646   24.131087 H          1 MOL1         0.1008
      20    H14     22.060595   21.541518   22.474879 H          1 MOL1         0.1008
@<TRIPOS>BOND
    1     1     2    1
    2     1     3    1
    3     1     4    1
    4     1     5    1
    5     5     6    1
    6     5     7    1
    7     5     8    1
    8     8     9    1
    9     8    10    1
   10     8    11    1
   11    11    12    1
   12    11    13    1
   13    11    14    1
   14    14    15    1
   15    14    16    1
   16    14    17    1
   17    17    18    1
   18    17    19    1
   19    17    20    1
@<TRIPOS>SUBSTRUCTURE
       1 MOL1            1 RESIDUE      1      MOL     
@<SCITEGIC>MOL_PROPERTY
VConf Rank
SciTegic.value.IntegerValue
265

@<SCITEGIC>MOL_PROPERTY
Conf_Id
SciTegic.value.IntegerValue
69

@<SCITEGIC>MOL_PROPERTY
Delta U+W
SciTegic.value.DoubleValue
2.811

@<SCITEGIC>MOL_PROPERTY
U+W
SciTegic.value.DoubleValue
-8.967

@<SCITEGIC>MOL_PROPERTY
Grad RMS
SciTegic.value.DoubleValue
0.000000

@<SCITEGIC>MOL_PROPERTY
U
SciTegic.value.DoubleValue
49.216

@<SCITEGIC>MOL_PROPERTY
W
SciTegic.value.DoubleValue
-58.183

@<SCITEGIC>MOL_PROPERTY
W(PB)
SciTegic.value.DoubleValue
-60.064

@<SCITEGIC>MOL_PROPERTY
W(SA)
SciTegic.value.DoubleValue
1.881

@<SCITEGIC>MOL_PROPERTY
Valence
SciTegic.value.DoubleValue
2.929

@<SCITEGIC>MOL_PROPERTY
Coulomb
SciTegic.value.DoubleValue
46.006

@<SCITEGIC>MOL_PROPERTY
VdW
SciTegic.value.DoubleValue
0.281

@<SCITEGIC>MOL_PROPERTY
VdW6
SciTegic.value.DoubleValue
-4.909

@<SCITEGIC>MOL_PROPERTY
VdW12
SciTegic.value.DoubleValue
5.190

@<SCITEGIC>MOL_PROPERTY
Bond
SciTegic.value.DoubleValue
0.156

@<SCITEGIC>MOL_PROPERTY
Angle
SciTegic.value.DoubleValue
0.974

@<SCITEGIC>MOL_PROPERTY
Pdih
SciTegic.value.DoubleValue
1.799

@<SCITEGIC>MOL_PROPERTY
Idih
SciTegic.value.DoubleValue
0.000

@<SCITEGIC>MOL_PROPERTY
Tether
SciTegic.value.DoubleValue
0.000

@<TRIPOS>MOLECULE
guest-s11_confgen4.mol2 : confsearch ligand conformer 266
          20          19           1
SMALL
USER_CHARGES
 
@<TRIPOS>ATOM
       1    N1      19.372958   20.990283   23.627465 N.4        1 MOL1        -0.5919
       2    H1      20.324559   20.934801   23.255435 H          1 MOL1         0.3682
       3    H2      18.837923   21.599063   23.000228 H          1 MOL1         0.3682
       4    H3      19.430374   21.472134   24.530884 H          1 MOL1         0.3682
       5    C1      18.735404   19.620513   23.760980 C.3        1 MOL1         0.0252
       6    H4      17.734709   19.774479   24.173849 H          1 MOL1         0.0971
       7    H5      19.312330   19.036185   24.482823 H          1 MOL1         0.0971
       8    C2      18.615121   18.842494   22.433691 C.3        1 MOL1        -0.1369
       9    H6      17.814824   18.100181   22.553550 H          1 MOL1         0.0997
      10    H7      18.283460   19.515203   21.631644 H          1 MOL1         0.0997
      11    C3      19.901709   18.088569   22.009357 C.3        1 MOL1        -0.1329
      12    H8      19.666197   17.482875   21.123270 H          1 MOL1         0.0997
      13    H9      20.186547   17.378078   22.797732 H          1 MOL1         0.0997
      14    C4      21.103881   19.005136   21.682253 C.3        1 MOL1        -0.1305
      15    H10     20.796175   19.786593   20.973320 H          1 MOL1         0.0997
      16    H11     21.452026   19.508222   22.593050 H          1 MOL1         0.0997
      17    C5      22.280607   18.206559   21.081746 C.3        1 MOL1        -0.2320
      18    H12     21.988513   17.716410   20.143845 H          1 MOL1         0.1008
      19    H13     23.128320   18.869294   20.864451 H          1 MOL1         0.1008
      20    H14     22.628436   17.432312   21.778042 H          1 MOL1         0.1008
@<TRIPOS>BOND
    1     1     2    1
    2     1     3    1
    3     1     4    1
    4     1     5    1
    5     5     6    1
    6     5     7    1
    7     5     8    1
    8     8     9    1
    9     8    10    1
   10     8    11    1
   11    11    12    1
   12    11    13    1
   13    11    14    1
   14    14    15    1
   15    14    16    1
   16    14    17    1
   17    17    18    1
   18    17    19    1
   19    17    20    1
@<TRIPOS>SUBSTRUCTURE
       1 MOL1            1 RESIDUE      1      MOL     
@<SCITEGIC>MOL_PROPERTY
VConf Rank
SciTegic.value.IntegerValue
266

@<SCITEGIC>MOL_PROPERTY
Conf_Id
SciTegic.value.IntegerValue
26

@<SCITEGIC>MOL_PROPERTY
Delta U+W
SciTegic.value.DoubleValue
2.809

@<SCITEGIC>MOL_PROPERTY
U+W
SciTegic.value.DoubleValue
-8.969

@<SCITEGIC>MOL_PROPERTY
Grad RMS
SciTegic.value.DoubleValue
0.000000

@<SCITEGIC>MOL_PROPERTY
U
SciTegic.value.DoubleValue
49.216

@<SCITEGIC>MOL_PROPERTY
W
SciTegic.value.DoubleValue
-58.185

@<SCITEGIC>MOL_PROPERTY
W(PB)
SciTegic.value.DoubleValue
-60.088

@<SCITEGIC>MOL_PROPERTY
W(SA)
SciTegic.value.DoubleValue
1.903

@<SCITEGIC>MOL_PROPERTY
Valence
SciTegic.value.DoubleValue
2.929

@<SCITEGIC>MOL_PROPERTY
Coulomb
SciTegic.value.DoubleValue
46.006

@<SCITEGIC>MOL_PROPERTY
VdW
SciTegic.value.DoubleValue
0.281

@<SCITEGIC>MOL_PROPERTY
VdW6
SciTegic.value.DoubleValue
-4.909

@<SCITEGIC>MOL_PROPERTY
VdW12
SciTegic.value.DoubleValue
5.190

@<SCITEGIC>MOL_PROPERTY
Bond
SciTegic.value.DoubleValue
0.156

@<SCITEGIC>MOL_PROPERTY
Angle
SciTegic.value.DoubleValue
0.974

@<SCITEGIC>MOL_PROPERTY
Pdih
SciTegic.value.DoubleValue
1.799

@<SCITEGIC>MOL_PROPERTY
Idih
SciTegic.value.DoubleValue
0.000

@<SCITEGIC>MOL_PROPERTY
Tether
SciTegic.value.DoubleValue
0.000

@<TRIPOS>MOLECULE
guest-s11_confgen4.mol2 : confsearch ligand conformer 267
          20          19           1
SMALL
USER_CHARGES
 
@<TRIPOS>ATOM
       1    N1      19.212485   17.504854   23.956028 N.4        1 MOL1        -0.5919
       2    H1      18.452257   17.809069   23.340849 H          1 MOL1         0.3682
       3    H2      19.405342   16.522771   23.736123 H          1 MOL1         0.3682
       4    H3      18.851548   17.530531   24.915389 H          1 MOL1         0.3682
       5    C1      20.446043   18.371557   23.794289 C.3        1 MOL1         0.0252
       6    H4      21.200786   18.011389   24.498668 H          1 MOL1         0.0971
       7    H5      20.181813   19.394605   24.074446 H          1 MOL1         0.0971
       8    C2      21.030157   18.357868   22.367084 C.3        1 MOL1        -0.1369
       9    H6      21.957337   18.945063   22.358650 H          1 MOL1         0.0997
      10    H7      21.323385   17.331745   22.108767 H          1 MOL1         0.0997
      11    C3      20.060721   18.899776   21.283791 C.3        1 MOL1        -0.1329
      12    H8      19.208569   18.214301   21.182956 H          1 MOL1         0.0997
      13    H9      20.571996   18.882578   20.311422 H          1 MOL1         0.0997
      14    C4      19.525628   20.330640   21.547107 C.3        1 MOL1        -0.1305
      15    H10     18.836718   20.602331   20.735049 H          1 MOL1         0.0997
      16    H11     18.927877   20.349706   22.468424 H          1 MOL1         0.0997
      17    C5      20.641564   21.396747   21.630449 C.3        1 MOL1        -0.2320
      18    H12     21.264994   21.387158   20.727009 H          1 MOL1         0.1008
      19    H13     20.207997   22.400416   21.728194 H          1 MOL1         0.1008
      20    H14     21.291653   21.232290   22.498746 H          1 MOL1         0.1008
@<TRIPOS>BOND
    1     1     2    1
    2     1     3    1
    3     1     4    1
    4     1     5    1
    5     5     6    1
    6     5     7    1
    7     5     8    1
    8     8     9    1
    9     8    10    1
   10     8    11    1
   11    11    12    1
   12    11    13    1
   13    11    14    1
   14    14    15    1
   15    14    16    1
   16    14    17    1
   17    17    18    1
   18    17    19    1
   19    17    20    1
@<TRIPOS>SUBSTRUCTURE
       1 MOL1            1 RESIDUE      1      MOL     
@<SCITEGIC>MOL_PROPERTY
VConf Rank
SciTegic.value.IntegerValue
267

@<SCITEGIC>MOL_PROPERTY
Conf_Id
SciTegic.value.IntegerValue
2

@<SCITEGIC>MOL_PROPERTY
Delta U+W
SciTegic.value.DoubleValue
0.994

@<SCITEGIC>MOL_PROPERTY
U+W
SciTegic.value.DoubleValue
-10.784

@<SCITEGIC>MOL_PROPERTY
Grad RMS
SciTegic.value.DoubleValue
0.000000

@<SCITEGIC>MOL_PROPERTY
U
SciTegic.value.DoubleValue
47.562

@<SCITEGIC>MOL_PROPERTY
W
SciTegic.value.DoubleValue
-58.346

@<SCITEGIC>MOL_PROPERTY
W(PB)
SciTegic.value.DoubleValue
-60.221

@<SCITEGIC>MOL_PROPERTY
W(SA)
SciTegic.value.DoubleValue
1.875

@<SCITEGIC>MOL_PROPERTY
Valence
SciTegic.value.DoubleValue
2.149

@<SCITEGIC>MOL_PROPERTY
Coulomb
SciTegic.value.DoubleValue
45.034

@<SCITEGIC>MOL_PROPERTY
VdW
SciTegic.value.DoubleValue
0.378

@<SCITEGIC>MOL_PROPERTY
VdW6
SciTegic.value.DoubleValue
-5.599

@<SCITEGIC>MOL_PROPERTY
VdW12
SciTegic.value.DoubleValue
5.977

@<SCITEGIC>MOL_PROPERTY
Bond
SciTegic.value.DoubleValue
0.185

@<SCITEGIC>MOL_PROPERTY
Angle
SciTegic.value.DoubleValue
0.935

@<SCITEGIC>MOL_PROPERTY
Pdih
SciTegic.value.DoubleValue
1.028

@<SCITEGIC>MOL_PROPERTY
Idih
SciTegic.value.DoubleValue
0.000

@<SCITEGIC>MOL_PROPERTY
Tether
SciTegic.value.DoubleValue
0.000

@<TRIPOS>MOLECULE
guest-s11_confgen4.mol2 : confsearch ligand conformer 268
          20          19           1
SMALL
USER_CHARGES
 
@<TRIPOS>ATOM
       1    N1      21.321812   20.773422   21.169363 N.4        1 MOL1        -0.5919
       2    H1      21.641837   20.509483   20.232369 H          1 MOL1         0.3682
       3    H2      20.319401   20.972325   21.101917 H          1 MOL1         0.3682
       4    H3      21.788065   21.655269   21.406564 H          1 MOL1         0.3682
       5    C1      21.611439   19.690159   22.189977 C.3        1 MOL1         0.0252
       6    H4      21.277450   20.046470   23.167948 H          1 MOL1         0.0971
       7    H5      22.695379   19.552775   22.231305 H          1 MOL1         0.0971
       8    C2      20.936452   18.340963   21.870058 C.3        1 MOL1        -0.1369
       9    H6      21.304343   17.975809   20.902093 H          1 MOL1         0.0997
      10    H7      21.259150   17.599258   22.611861 H          1 MOL1         0.0997
      11    C3      19.386631   18.403570   21.836465 C.3        1 MOL1        -0.1329
      12    H8      18.996448   17.396254   21.635790 H          1 MOL1         0.0997
      13    H9      19.066153   19.020563   20.986276 H          1 MOL1         0.0997
      14    C4      18.729728   18.950614   23.129623 C.3        1 MOL1        -0.1305
      15    H10     19.031476   19.993273   23.297863 H          1 MOL1         0.0997
      16    H11     17.640099   18.971222   22.987727 H          1 MOL1         0.0997
      17    C5      19.052197   18.108170   24.384669 C.3        1 MOL1        -0.2320
      18    H12     20.119551   18.150468   24.634807 H          1 MOL1         0.1008
      19    H13     18.494689   18.482712   25.252879 H          1 MOL1         0.1008
      20    H14     18.774909   17.056495   24.236173 H          1 MOL1         0.1008
@<TRIPOS>BOND
    1     1     2    1
    2     1     3    1
    3     1     4    1
    4     1     5    1
    5     5     6    1
    6     5     7    1
    7     5     8    1
    8     8     9    1
    9     8    10    1
   10     8    11    1
   11    11    12    1
   12    11    13    1
   13    11    14    1
   14    14    15    1
   15    14    16    1
   16    14    17    1
   17    17    18    1
   18    17    19    1
   19    17    20    1
@<TRIPOS>SUBSTRUCTURE
       1 MOL1            1 RESIDUE      1      MOL     
@<SCITEGIC>MOL_PROPERTY
VConf Rank
SciTegic.value.IntegerValue
268

@<SCITEGIC>MOL_PROPERTY
Conf_Id
SciTegic.value.IntegerValue
1

@<SCITEGIC>MOL_PROPERTY
Delta U+W
SciTegic.value.DoubleValue
1.032

@<SCITEGIC>MOL_PROPERTY
U+W
SciTegic.value.DoubleValue
-10.746

@<SCITEGIC>MOL_PROPERTY
Grad RMS
SciTegic.value.DoubleValue
0.000000

@<SCITEGIC>MOL_PROPERTY
U
SciTegic.value.DoubleValue
47.562

@<SCITEGIC>MOL_PROPERTY
W
SciTegic.value.DoubleValue
-58.308

@<SCITEGIC>MOL_PROPERTY
W(PB)
SciTegic.value.DoubleValue
-60.184

@<SCITEGIC>MOL_PROPERTY
W(SA)
SciTegic.value.DoubleValue
1.877

@<SCITEGIC>MOL_PROPERTY
Valence
SciTegic.value.DoubleValue
2.149

@<SCITEGIC>MOL_PROPERTY
Coulomb
SciTegic.value.DoubleValue
45.035

@<SCITEGIC>MOL_PROPERTY
VdW
SciTegic.value.DoubleValue
0.378

@<SCITEGIC>MOL_PROPERTY
VdW6
SciTegic.value.DoubleValue
-5.599

@<SCITEGIC>MOL_PROPERTY
VdW12
SciTegic.value.DoubleValue
5.978

@<SCITEGIC>MOL_PROPERTY
Bond
SciTegic.value.DoubleValue
0.185

@<SCITEGIC>MOL_PROPERTY
Angle
SciTegic.value.DoubleValue
0.935

@<SCITEGIC>MOL_PROPERTY
Pdih
SciTegic.value.DoubleValue
1.028

@<SCITEGIC>MOL_PROPERTY
Idih
SciTegic.value.DoubleValue
0.000

@<SCITEGIC>MOL_PROPERTY
Tether
SciTegic.value.DoubleValue
0.000

@<TRIPOS>MOLECULE
guest-s11_confgen4.mol2 : confsearch ligand conformer 269
          20          19           1
SMALL
USER_CHARGES
 
@<TRIPOS>ATOM
       1    N1      20.841294   20.836021   21.026213 N.4        1 MOL1        -0.5919
       2    H1      20.138284   21.536021   20.769566 H          1 MOL1         0.3682
       3    H2      21.181999   21.077677   21.961203 H          1 MOL1         0.3682
       4    H3      21.629132   20.954322   20.380719 H          1 MOL1         0.3682
       5    C1      20.279977   19.428081   20.977375 C.3        1 MOL1         0.0252
       6    H4      21.085089   18.736264   21.229772 H          1 MOL1         0.0971
       7    H5      19.978387   19.230478   19.945135 H          1 MOL1         0.0971
       8    C2      19.069395   19.206731   21.909152 C.3        1 MOL1        -0.1369
       9    H6      18.288516   19.926335   21.629476 H          1 MOL1         0.0997
      10    H7      18.642805   18.212609   21.721104 H          1 MOL1         0.0997
      11    C3      19.377325   19.363211   23.422762 C.3        1 MOL1        -0.1329
      12    H8      18.435167   19.603595   23.934601 H          1 MOL1         0.0997
      13    H9      20.032835   20.226040   23.597565 H          1 MOL1         0.0997
      14    C4      19.967080   18.102844   24.106645 C.3        1 MOL1        -0.1305
      15    H10     20.053725   18.304220   25.183626 H          1 MOL1         0.0997
      16    H11     19.261992   17.265246   24.011451 H          1 MOL1         0.0997
      17    C5      21.351914   17.671350   23.575629 C.3        1 MOL1        -0.2320
      18    H12     22.050776   18.517332   23.549809 H          1 MOL1         0.1008
      19    H13     21.785334   16.898469   24.223497 H          1 MOL1         0.1008
      20    H14     21.278263   17.243916   22.568689 H          1 MOL1         0.1008
@<TRIPOS>BOND
    1     1     2    1
    2     1     3    1
    3     1     4    1
    4     1     5    1
    5     5     6    1
    6     5     7    1
    7     5     8    1
    8     8     9    1
    9     8    10    1
   10     8    11    1
   11    11    12    1
   12    11    13    1
   13    11    14    1
   14    14    15    1
   15    14    16    1
   16    14    17    1
   17    17    18    1
   18    17    19    1
   19    17    20    1
@<TRIPOS>SUBSTRUCTURE
       1 MOL1            1 RESIDUE      1      MOL     
@<SCITEGIC>MOL_PROPERTY
VConf Rank
SciTegic.value.IntegerValue
269

@<SCITEGIC>MOL_PROPERTY
Conf_Id
SciTegic.value.IntegerValue
80

@<SCITEGIC>MOL_PROPERTY
Delta U+W
SciTegic.value.DoubleValue
2.920

@<SCITEGIC>MOL_PROPERTY
U+W
SciTegic.value.DoubleValue
-8.857

@<SCITEGIC>MOL_PROPERTY
Grad RMS
SciTegic.value.DoubleValue
0.000000

@<SCITEGIC>MOL_PROPERTY
U
SciTegic.value.DoubleValue
49.434

@<SCITEGIC>MOL_PROPERTY
W
SciTegic.value.DoubleValue
-58.292

@<SCITEGIC>MOL_PROPERTY
W(PB)
SciTegic.value.DoubleValue
-60.170

@<SCITEGIC>MOL_PROPERTY
W(SA)
SciTegic.value.DoubleValue
1.879

@<SCITEGIC>MOL_PROPERTY
Valence
SciTegic.value.DoubleValue
3.798

@<SCITEGIC>MOL_PROPERTY
Coulomb
SciTegic.value.DoubleValue
45.253

@<SCITEGIC>MOL_PROPERTY
VdW
SciTegic.value.DoubleValue
0.384

@<SCITEGIC>MOL_PROPERTY
VdW6
SciTegic.value.DoubleValue
-5.595

@<SCITEGIC>MOL_PROPERTY
VdW12
SciTegic.value.DoubleValue
5.979

@<SCITEGIC>MOL_PROPERTY
Bond
SciTegic.value.DoubleValue
0.198

@<SCITEGIC>MOL_PROPERTY
Angle
SciTegic.value.DoubleValue
1.368

@<SCITEGIC>MOL_PROPERTY
Pdih
SciTegic.value.DoubleValue
2.231

@<SCITEGIC>MOL_PROPERTY
Idih
SciTegic.value.DoubleValue
0.000

@<SCITEGIC>MOL_PROPERTY
Tether
SciTegic.value.DoubleValue
0.000

@<TRIPOS>MOLECULE
guest-s11_confgen4.mol2 : confsearch ligand conformer 270
          20          19           1
SMALL
USER_CHARGES
 
@<TRIPOS>ATOM
       1    N1      19.385431   19.640496   24.630347 N.4        1 MOL1        -0.5919
       2    H1      19.097081   18.853631   25.220082 H          1 MOL1         0.3682
       3    H2      19.439234   20.464471   25.238225 H          1 MOL1         0.3682
       4    H3      18.628719   19.811120   23.961796 H          1 MOL1         0.3682
       5    C1      20.703907   19.369027   23.932004 C.3        1 MOL1         0.0252
       6    H4      21.465107   19.240130   24.706267 H          1 MOL1         0.0971
       7    H5      20.964415   20.254252   23.349742 H          1 MOL1         0.0971
       8    C2      20.684866   18.117801   23.028236 C.3        1 MOL1        -0.1369
       9    H6      21.701366   17.915694   22.665609 H          1 MOL1         0.0997
      10    H7      20.410044   17.254190   23.648292 H          1 MOL1         0.0997
      11    C3      19.709371   18.201329   21.823346 C.3        1 MOL1        -0.1329
      12    H8      18.756191   18.652822   22.127191 H          1 MOL1         0.0997
      13    H9      19.462494   17.174859   21.518656 H          1 MOL1         0.0997
      14    C4      20.268003   18.932795   20.575576 C.3        1 MOL1        -0.1305
      15    H10     21.170785   18.418401   20.217573 H          1 MOL1         0.0997
      16    H11     19.529507   18.845956   19.766237 H          1 MOL1         0.0997
      17    C5      20.582103   20.429296   20.794109 C.3        1 MOL1        -0.2320
      18    H12     21.468977   20.563468   21.424587 H          1 MOL1         0.1008
      19    H13     20.791048   20.919610   19.834493 H          1 MOL1         0.1008
      20    H14     19.735881   20.950899   21.259510 H          1 MOL1         0.1008
@<TRIPOS>BOND
    1     1     2    1
    2     1     3    1
    3     1     4    1
    4     1     5    1
    5     5     6    1
    6     5     7    1
    7     5     8    1
    8     8     9    1
    9     8    10    1
   10     8    11    1
   11    11    12    1
   12    11    13    1
   13    11    14    1
   14    14    15    1
   15    14    16    1
   16    14    17    1
   17    17    18    1
   18    17    19    1
   19    17    20    1
@<TRIPOS>SUBSTRUCTURE
       1 MOL1            1 RESIDUE      1      MOL     
@<SCITEGIC>MOL_PROPERTY
VConf Rank
SciTegic.value.IntegerValue
270

@<SCITEGIC>MOL_PROPERTY
Conf_Id
SciTegic.value.IntegerValue
65

@<SCITEGIC>MOL_PROPERTY
Delta U+W
SciTegic.value.DoubleValue
2.949

@<SCITEGIC>MOL_PROPERTY
U+W
SciTegic.value.DoubleValue
-8.829

@<SCITEGIC>MOL_PROPERTY
Grad RMS
SciTegic.value.DoubleValue
0.000000

@<SCITEGIC>MOL_PROPERTY
U
SciTegic.value.DoubleValue
49.435

@<SCITEGIC>MOL_PROPERTY
W
SciTegic.value.DoubleValue
-58.263

@<SCITEGIC>MOL_PROPERTY
W(PB)
SciTegic.value.DoubleValue
-60.125

@<SCITEGIC>MOL_PROPERTY
W(SA)
SciTegic.value.DoubleValue
1.862

@<SCITEGIC>MOL_PROPERTY
Valence
SciTegic.value.DoubleValue
3.797

@<SCITEGIC>MOL_PROPERTY
Coulomb
SciTegic.value.DoubleValue
45.253

@<SCITEGIC>MOL_PROPERTY
VdW
SciTegic.value.DoubleValue
0.384

@<SCITEGIC>MOL_PROPERTY
VdW6
SciTegic.value.DoubleValue
-5.596

@<SCITEGIC>MOL_PROPERTY
VdW12
SciTegic.value.DoubleValue
5.980

@<SCITEGIC>MOL_PROPERTY
Bond
SciTegic.value.DoubleValue
0.198

@<SCITEGIC>MOL_PROPERTY
Angle
SciTegic.value.DoubleValue
1.369

@<SCITEGIC>MOL_PROPERTY
Pdih
SciTegic.value.DoubleValue
2.230

@<SCITEGIC>MOL_PROPERTY
Idih
SciTegic.value.DoubleValue
0.000

@<SCITEGIC>MOL_PROPERTY
Tether
SciTegic.value.DoubleValue
0.000

@<TRIPOS>MOLECULE
guest-s11_confgen4.mol2 : confsearch ligand conformer 271
          20          19           1
SMALL
USER_CHARGES
 
@<TRIPOS>ATOM
       1    N1      20.884834   17.923751   21.195242 N.4        1 MOL1        -0.5919
       2    H1      21.798747   17.720049   20.776971 H          1 MOL1         0.3682
       3    H2      20.983666   17.823358   22.210071 H          1 MOL1         0.3682
       4    H3      20.241844   17.191630   20.877485 H          1 MOL1         0.3682
       5    C1      20.390012   19.307736   20.822028 C.3        1 MOL1         0.0252
       6    H4      20.309089   19.334831   19.731965 H          1 MOL1         0.0971
       7    H5      21.141119   20.042210   21.124662 H          1 MOL1         0.0971
       8    C2      19.023550   19.671715   21.437424 C.3        1 MOL1        -0.1369
       9    H6      18.573445   20.453574   20.811394 H          1 MOL1         0.0997
      10    H7      18.345335   18.810539   21.372539 H          1 MOL1         0.0997
      11    C3      19.075281   20.203833   22.894831 C.3        1 MOL1        -0.1329
      12    H8      18.049412   20.472752   23.182579 H          1 MOL1         0.0997
      13    H9      19.645248   21.142618   22.930701 H          1 MOL1         0.0997
      14    C4      19.623521   19.208167   23.948682 C.3        1 MOL1        -0.1305
      15    H10     19.072859   19.355090   24.888599 H          1 MOL1         0.0997
      16    H11     19.416351   18.173442   23.644235 H          1 MOL1         0.0997
      17    C5      21.128647   19.406692   24.247013 C.3        1 MOL1        -0.2320
      18    H12     21.746647   19.346602   23.344760 H          1 MOL1         0.1008
      19    H13     21.305496   20.390342   24.701413 H          1 MOL1         0.1008
      20    H14     21.486323   18.647288   24.954512 H          1 MOL1         0.1008
@<TRIPOS>BOND
    1     1     2    1
    2     1     3    1
    3     1     4    1
    4     1     5    1
    5     5     6    1
    6     5     7    1
    7     5     8    1
    8     8     9    1
    9     8    10    1
   10     8    11    1
   11    11    12    1
   12    11    13    1
   13    11    14    1
   14    14    15    1
   15    14    16    1
   16    14    17    1
   17    17    18    1
   18    17    19    1
   19    17    20    1
@<TRIPOS>SUBSTRUCTURE
       1 MOL1            1 RESIDUE      1      MOL     
@<SCITEGIC>MOL_PROPERTY
VConf Rank
SciTegic.value.IntegerValue
271

@<SCITEGIC>MOL_PROPERTY
Conf_Id
SciTegic.value.IntegerValue
77

@<SCITEGIC>MOL_PROPERTY
Delta U+W
SciTegic.value.DoubleValue
5.366

@<SCITEGIC>MOL_PROPERTY
U+W
SciTegic.value.DoubleValue
-6.412

@<SCITEGIC>MOL_PROPERTY
Grad RMS
SciTegic.value.DoubleValue
0.000000

@<SCITEGIC>MOL_PROPERTY
U
SciTegic.value.DoubleValue
51.542

@<SCITEGIC>MOL_PROPERTY
W
SciTegic.value.DoubleValue
-57.954

@<SCITEGIC>MOL_PROPERTY
W(PB)
SciTegic.value.DoubleValue
-59.811

@<SCITEGIC>MOL_PROPERTY
W(SA)
SciTegic.value.DoubleValue
1.857

@<SCITEGIC>MOL_PROPERTY
Valence
SciTegic.value.DoubleValue
5.347

@<SCITEGIC>MOL_PROPERTY
Coulomb
SciTegic.value.DoubleValue
45.870

@<SCITEGIC>MOL_PROPERTY
VdW
SciTegic.value.DoubleValue
0.325

@<SCITEGIC>MOL_PROPERTY
VdW6
SciTegic.value.DoubleValue
-6.161

@<SCITEGIC>MOL_PROPERTY
VdW12
SciTegic.value.DoubleValue
6.486

@<SCITEGIC>MOL_PROPERTY
Bond
SciTegic.value.DoubleValue
0.201

@<SCITEGIC>MOL_PROPERTY
Angle
SciTegic.value.DoubleValue
1.484

@<SCITEGIC>MOL_PROPERTY
Pdih
SciTegic.value.DoubleValue
3.662

@<SCITEGIC>MOL_PROPERTY
Idih
SciTegic.value.DoubleValue
0.000

@<SCITEGIC>MOL_PROPERTY
Tether
SciTegic.value.DoubleValue
0.000

@<TRIPOS>MOLECULE
guest-s11_confgen4.mol2 : confsearch ligand conformer 272
          20          19           1
SMALL
USER_CHARGES
 
@<TRIPOS>ATOM
       1    N1      19.913462   19.348310   20.529372 N.4        1 MOL1        -0.5919
       2    H1      20.048736   20.316334   20.221095 H          1 MOL1         0.3682
       3    H2      20.811203   19.016446   20.894958 H          1 MOL1         0.3682
       4    H3      19.700717   18.795707   19.692084 H          1 MOL1         0.3682
       5    C1      18.817180   19.237778   21.571250 C.3        1 MOL1         0.0252
       6    H4      18.670275   18.182269   21.815219 H          1 MOL1         0.0971
       7    H5      17.898768   19.610097   21.109278 H          1 MOL1         0.0971
       8    C2      19.093654   20.039671   22.859249 C.3        1 MOL1        -0.1369
       9    H6      19.509867   21.022958   22.602883 H          1 MOL1         0.0997
      10    H7      18.127451   20.241148   23.340571 H          1 MOL1         0.0997
      11    C3      20.001120   19.328729   23.898927 C.3        1 MOL1        -0.1329
      12    H8      19.515048   18.409255   24.253563 H          1 MOL1         0.0997
      13    H9      20.067067   19.983433   24.779006 H          1 MOL1         0.0997
      14    C4      21.443239   19.018410   23.422993 C.3        1 MOL1        -0.1305
      15    H10     21.768541   19.755264   22.676342 H          1 MOL1         0.0997
      16    H11     22.126774   19.140295   24.275157 H          1 MOL1         0.0997
      17    C5      21.609179   17.576610   22.886804 C.3        1 MOL1        -0.2320
      18    H12     22.628265   17.418676   22.510370 H          1 MOL1         0.1008
      19    H13     21.435876   16.845047   23.686868 H          1 MOL1         0.1008
      20    H14     20.909452   17.347432   22.075969 H          1 MOL1         0.1008
@<TRIPOS>BOND
    1     1     2    1
    2     1     3    1
    3     1     4    1
    4     1     5    1
    5     5     6    1
    6     5     7    1
    7     5     8    1
    8     8     9    1
    9     8    10    1
   10     8    11    1
   11    11    12    1
   12    11    13    1
   13    11    14    1
   14    14    15    1
   15    14    16    1
   16    14    17    1
   17    17    18    1
   18    17    19    1
   19    17    20    1
@<TRIPOS>SUBSTRUCTURE
       1 MOL1            1 RESIDUE      1      MOL     
@<SCITEGIC>MOL_PROPERTY
VConf Rank
SciTegic.value.IntegerValue
272

@<SCITEGIC>MOL_PROPERTY
Conf_Id
SciTegic.value.IntegerValue
67

@<SCITEGIC>MOL_PROPERTY
Delta U+W
SciTegic.value.DoubleValue
5.353

@<SCITEGIC>MOL_PROPERTY
U+W
SciTegic.value.DoubleValue
-6.425

@<SCITEGIC>MOL_PROPERTY
Grad RMS
SciTegic.value.DoubleValue
0.000000

@<SCITEGIC>MOL_PROPERTY
U
SciTegic.value.DoubleValue
51.541

@<SCITEGIC>MOL_PROPERTY
W
SciTegic.value.DoubleValue
-57.966

@<SCITEGIC>MOL_PROPERTY
W(PB)
SciTegic.value.DoubleValue
-59.821

@<SCITEGIC>MOL_PROPERTY
W(SA)
SciTegic.value.DoubleValue
1.855

@<SCITEGIC>MOL_PROPERTY
Valence
SciTegic.value.DoubleValue
5.347

@<SCITEGIC>MOL_PROPERTY
Coulomb
SciTegic.value.DoubleValue
45.870

@<SCITEGIC>MOL_PROPERTY
VdW
SciTegic.value.DoubleValue
0.325

@<SCITEGIC>MOL_PROPERTY
VdW6
SciTegic.value.DoubleValue
-6.161

@<SCITEGIC>MOL_PROPERTY
VdW12
SciTegic.value.DoubleValue
6.486

@<SCITEGIC>MOL_PROPERTY
Bond
SciTegic.value.DoubleValue
0.201

@<SCITEGIC>MOL_PROPERTY
Angle
SciTegic.value.DoubleValue
1.485

@<SCITEGIC>MOL_PROPERTY
Pdih
SciTegic.value.DoubleValue
3.662

@<SCITEGIC>MOL_PROPERTY
Idih
SciTegic.value.DoubleValue
0.000

@<SCITEGIC>MOL_PROPERTY
Tether
SciTegic.value.DoubleValue
0.000

@<TRIPOS>MOLECULE
guest-s11_confgen4.mol2 : confsearch ligand conformer 273
          20          19           1
SMALL
USER_CHARGES
 
@<TRIPOS>ATOM
       1    N1      20.130854   17.057728   24.925156 N.4        1 MOL1        -0.5919
       2    H1      19.195992   16.665821   24.774058 H          1 MOL1         0.3682
       3    H2      20.720785   16.293904   25.271786 H          1 MOL1         0.3682
       4    H3      20.051962   17.740499   25.685411 H          1 MOL1         0.3682
       5    C1      20.696186   17.677639   23.663175 C.3        1 MOL1         0.0252
       6    H4      20.780603   16.890469   22.909017 H          1 MOL1         0.0971
       7    H5      21.700674   18.045918   23.888760 H          1 MOL1         0.0971
       8    C2      19.833415   18.828821   23.115750 C.3        1 MOL1        -0.1369
       9    H6      18.821192   18.458234   22.905664 H          1 MOL1         0.0997
      10    H7      19.738083   19.609717   23.882028 H          1 MOL1         0.0997
      11    C3      20.443727   19.432109   21.831113 C.3        1 MOL1        -0.1329
      12    H8      20.542524   18.647003   21.068461 H          1 MOL1         0.0997
      13    H9      21.458287   19.797187   22.043665 H          1 MOL1         0.0997
      14    C4      19.585589   20.589179   21.272251 C.3        1 MOL1        -0.1305
      15    H10     18.570310   20.227777   21.056278 H          1 MOL1         0.0997
      16    H11     19.486017   21.377842   22.031293 H          1 MOL1         0.0997
      17    C5      20.199118   21.188719   19.988852 C.3        1 MOL1        -0.2320
      18    H12     20.279803   20.431186   19.198379 H          1 MOL1         0.1008
      19    H13     19.576072   22.008079   19.607397 H          1 MOL1         0.1008
      20    H14     21.202598   21.590356   20.181025 H          1 MOL1         0.1008
@<TRIPOS>BOND
    1     1     2    1
    2     1     3    1
    3     1     4    1
    4     1     5    1
    5     5     6    1
    6     5     7    1
    7     5     8    1
    8     8     9    1
    9     8    10    1
   10     8    11    1
   11    11    12    1
   12    11    13    1
   13    11    14    1
   14    14    15    1
   15    14    16    1
   16    14    17    1
   17    17    18    1
   18    17    19    1
   19    17    20    1
@<TRIPOS>SUBSTRUCTURE
       1 MOL1            1 RESIDUE      1      MOL     
@<SCITEGIC>MOL_PROPERTY
VConf Rank
SciTegic.value.IntegerValue
273

@<SCITEGIC>MOL_PROPERTY
Conf_Id
SciTegic.value.IntegerValue
72

@<SCITEGIC>MOL_PROPERTY
Delta U+W
SciTegic.value.DoubleValue
0.000

@<SCITEGIC>MOL_PROPERTY
U+W
SciTegic.value.DoubleValue
-11.778

@<SCITEGIC>MOL_PROPERTY
Grad RMS
SciTegic.value.DoubleValue
0.000000

@<SCITEGIC>MOL_PROPERTY
U
SciTegic.value.DoubleValue
45.772

@<SCITEGIC>MOL_PROPERTY
W
SciTegic.value.DoubleValue
-57.550

@<SCITEGIC>MOL_PROPERTY
W(PB)
SciTegic.value.DoubleValue
-59.511

@<SCITEGIC>MOL_PROPERTY
W(SA)
SciTegic.value.DoubleValue
1.961

@<SCITEGIC>MOL_PROPERTY
Valence
SciTegic.value.DoubleValue
1.299

@<SCITEGIC>MOL_PROPERTY
Coulomb
SciTegic.value.DoubleValue
44.177

@<SCITEGIC>MOL_PROPERTY
VdW
SciTegic.value.DoubleValue
0.297

@<SCITEGIC>MOL_PROPERTY
VdW6
SciTegic.value.DoubleValue
-3.490

@<SCITEGIC>MOL_PROPERTY
VdW12
SciTegic.value.DoubleValue
3.786

@<SCITEGIC>MOL_PROPERTY
Bond
SciTegic.value.DoubleValue
0.096

@<SCITEGIC>MOL_PROPERTY
Angle
SciTegic.value.DoubleValue
0.381

@<SCITEGIC>MOL_PROPERTY
Pdih
SciTegic.value.DoubleValue
0.822

@<SCITEGIC>MOL_PROPERTY
Idih
SciTegic.value.DoubleValue
0.000

@<SCITEGIC>MOL_PROPERTY
Tether
SciTegic.value.DoubleValue
0.000

@<TRIPOS>MOLECULE
guest-s11_confgen4.mol2 : confsearch ligand conformer 274
          20          19           1
SMALL
USER_CHARGES
 
@<TRIPOS>ATOM
       1    N1      17.819884   17.306095   21.920280 N.4        1 MOL1        -0.5919
       2    H1      17.843783   17.537919   20.922270 H          1 MOL1         0.3682
       3    H2      18.333759   16.427193   22.037875 H          1 MOL1         0.3682
       4    H3      16.841158   17.112012   22.156941 H          1 MOL1         0.3682
       5    C1      18.395796   18.417686   22.774250 C.3        1 MOL1         0.0252
       6    H4      18.310228   18.117002   23.821991 H          1 MOL1         0.0971
       7    H5      17.784236   19.311280   22.622623 H          1 MOL1         0.0971
       8    C2      19.865639   18.734398   22.444821 C.3        1 MOL1        -0.1369
       9    H6      20.473438   17.830361   22.583057 H          1 MOL1         0.0997
      10    H7      19.942197   19.017502   21.387439 H          1 MOL1         0.0997
      11    C3      20.411955   19.871255   23.340491 C.3        1 MOL1        -0.1329
      12    H8      20.256691   19.602135   24.394631 H          1 MOL1         0.0997
      13    H9      19.832829   20.789111   23.168038 H          1 MOL1         0.0997
      14    C4      21.917159   20.160368   23.122676 C.3        1 MOL1        -0.1305
      15    H10     22.245044   20.901125   23.865448 H          1 MOL1         0.0997
      16    H11     22.502558   19.250840   23.317470 H          1 MOL1         0.0997
      17    C5      22.242334   20.695002   21.709185 C.3        1 MOL1        -0.2320
      18    H12     21.648647   21.589076   21.478576 H          1 MOL1         0.1008
      19    H13     23.302799   20.969099   21.636820 H          1 MOL1         0.1008
      20    H14     22.043895   19.941436   20.937056 H          1 MOL1         0.1008
@<TRIPOS>BOND
    1     1     2    1
    2     1     3    1
    3     1     4    1
    4     1     5    1
    5     5     6    1
    6     5     7    1
    7     5     8    1
    8     8     9    1
    9     8    10    1
   10     8    11    1
   11    11    12    1
   12    11    13    1
   13    11    14    1
   14    14    15    1
   15    14    16    1
   16    14    17    1
   17    17    18    1
   18    17    19    1
   19    17    20    1
@<TRIPOS>SUBSTRUCTURE
       1 MOL1            1 RESIDUE      1      MOL     
@<SCITEGIC>MOL_PROPERTY
VConf Rank
SciTegic.value.IntegerValue
274

@<SCITEGIC>MOL_PROPERTY
Conf_Id
SciTegic.value.IntegerValue
42

@<SCITEGIC>MOL_PROPERTY
Delta U+W
SciTegic.value.DoubleValue
0.508

@<SCITEGIC>MOL_PROPERTY
U+W
SciTegic.value.DoubleValue
-11.270

@<SCITEGIC>MOL_PROPERTY
Grad RMS
SciTegic.value.DoubleValue
0.000000

@<SCITEGIC>MOL_PROPERTY
U
SciTegic.value.DoubleValue
46.486

@<SCITEGIC>MOL_PROPERTY
W
SciTegic.value.DoubleValue
-57.756

@<SCITEGIC>MOL_PROPERTY
W(PB)
SciTegic.value.DoubleValue
-59.705

@<SCITEGIC>MOL_PROPERTY
W(SA)
SciTegic.value.DoubleValue
1.949

@<SCITEGIC>MOL_PROPERTY
Valence
SciTegic.value.DoubleValue
1.806

@<SCITEGIC>MOL_PROPERTY
Coulomb
SciTegic.value.DoubleValue
44.248

@<SCITEGIC>MOL_PROPERTY
VdW
SciTegic.value.DoubleValue
0.433

@<SCITEGIC>MOL_PROPERTY
VdW6
SciTegic.value.DoubleValue
-4.089

@<SCITEGIC>MOL_PROPERTY
VdW12
SciTegic.value.DoubleValue
4.522

@<SCITEGIC>MOL_PROPERTY
Bond
SciTegic.value.DoubleValue
0.131

@<SCITEGIC>MOL_PROPERTY
Angle
SciTegic.value.DoubleValue
0.628

@<SCITEGIC>MOL_PROPERTY
Pdih
SciTegic.value.DoubleValue
1.047

@<SCITEGIC>MOL_PROPERTY
Idih
SciTegic.value.DoubleValue
0.000

@<SCITEGIC>MOL_PROPERTY
Tether
SciTegic.value.DoubleValue
0.000

@<TRIPOS>MOLECULE
guest-s11_confgen4.mol2 : confsearch ligand conformer 275
          20          19           1
SMALL
USER_CHARGES
 
@<TRIPOS>ATOM
       1    N1      22.349931   20.560636   21.083181 N.4        1 MOL1        -0.5919
       2    H1      22.937091   20.739561   21.903908 H          1 MOL1         0.3682
       3    H2      22.695285   19.699667   20.647524 H          1 MOL1         0.3682
       4    H3      22.527540   21.321633   20.419163 H          1 MOL1         0.3682
       5    C1      20.882158   20.462261   21.447253 C.3        1 MOL1         0.0252
       6    H4      20.315786   20.301930   20.525828 H          1 MOL1         0.0971
       7    H5      20.575985   21.420365   21.875961 H          1 MOL1         0.0971
       8    C2      20.580466   19.328882   22.444100 C.3        1 MOL1        -0.1369
       9    H6      20.907805   18.375221   22.011148 H          1 MOL1         0.0997
      10    H7      21.163250   19.485253   23.361554 H          1 MOL1         0.0997
      11    C3      19.073583   19.267034   22.788498 C.3        1 MOL1        -0.1329
      12    H8      18.493635   19.064533   21.877322 H          1 MOL1         0.0997
      13    H9      18.748127   20.253074   23.148425 H          1 MOL1         0.0997
      14    C4      18.729007   18.210935   23.866734 C.3        1 MOL1        -0.1305
      15    H10     19.289055   18.423722   24.788116 H          1 MOL1         0.0997
      16    H11     17.665087   18.305545   24.125699 H          1 MOL1         0.0997
      17    C5      19.004231   16.758481   23.414890 C.3        1 MOL1        -0.2320
      18    H12     20.075447   16.580171   23.259572 H          1 MOL1         0.1008
      19    H13     18.659208   16.047393   24.176641 H          1 MOL1         0.1008
      20    H14     18.477664   16.529118   22.479404 H          1 MOL1         0.1008
@<TRIPOS>BOND
    1     1     2    1
    2     1     3    1
    3     1     4    1
    4     1     5    1
    5     5     6    1
    6     5     7    1
    7     5     8    1
    8     8     9    1
    9     8    10    1
   10     8    11    1
   11    11    12    1
   12    11    13    1
   13    11    14    1
   14    14    15    1
   15    14    16    1
   16    14    17    1
   17    17    18    1
   18    17    19    1
   19    17    20    1
@<TRIPOS>SUBSTRUCTURE
       1 MOL1            1 RESIDUE      1      MOL     
@<SCITEGIC>MOL_PROPERTY
VConf Rank
SciTegic.value.IntegerValue
275

@<SCITEGIC>MOL_PROPERTY
Conf_Id
SciTegic.value.IntegerValue
41

@<SCITEGIC>MOL_PROPERTY
Delta U+W
SciTegic.value.DoubleValue
0.515

@<SCITEGIC>MOL_PROPERTY
U+W
SciTegic.value.DoubleValue
-11.263

@<SCITEGIC>MOL_PROPERTY
Grad RMS
SciTegic.value.DoubleValue
0.000000

@<SCITEGIC>MOL_PROPERTY
U
SciTegic.value.DoubleValue
46.486

@<SCITEGIC>MOL_PROPERTY
W
SciTegic.value.DoubleValue
-57.749

@<SCITEGIC>MOL_PROPERTY
W(PB)
SciTegic.value.DoubleValue
-59.685

@<SCITEGIC>MOL_PROPERTY
W(SA)
SciTegic.value.DoubleValue
1.936

@<SCITEGIC>MOL_PROPERTY
Valence
SciTegic.value.DoubleValue
1.806

@<SCITEGIC>MOL_PROPERTY
Coulomb
SciTegic.value.DoubleValue
44.248

@<SCITEGIC>MOL_PROPERTY
VdW
SciTegic.value.DoubleValue
0.433

@<SCITEGIC>MOL_PROPERTY
VdW6
SciTegic.value.DoubleValue
-4.089

@<SCITEGIC>MOL_PROPERTY
VdW12
SciTegic.value.DoubleValue
4.522

@<SCITEGIC>MOL_PROPERTY
Bond
SciTegic.value.DoubleValue
0.131

@<SCITEGIC>MOL_PROPERTY
Angle
SciTegic.value.DoubleValue
0.628

@<SCITEGIC>MOL_PROPERTY
Pdih
SciTegic.value.DoubleValue
1.047

@<SCITEGIC>MOL_PROPERTY
Idih
SciTegic.value.DoubleValue
0.000

@<SCITEGIC>MOL_PROPERTY
Tether
SciTegic.value.DoubleValue
0.000

@<TRIPOS>MOLECULE
guest-s11_confgen4.mol2 : confsearch ligand conformer 276
          20          19           1
SMALL
USER_CHARGES
 
@<TRIPOS>ATOM
       1    N1      22.253052   20.190837   23.907108 N.4        1 MOL1        -0.5919
       2    H1      23.015777   20.104402   24.587021 H          1 MOL1         0.3682
       3    H2      22.664372   20.055400   22.978986 H          1 MOL1         0.3682
       4    H3      21.921585   21.159447   23.953133 H          1 MOL1         0.3682
       5    C1      21.139179   19.198930   24.182011 C.3        1 MOL1         0.0252
       6    H4      20.782776   19.376249   25.200409 H          1 MOL1         0.0971
       7    H5      21.562854   18.191827   24.140967 H          1 MOL1         0.0971
       8    C2      19.953785   19.303274   23.202306 C.3        1 MOL1        -0.1369
       9    H6      19.161464   18.632546   23.557215 H          1 MOL1         0.0997
      10    H7      19.541553   20.320532   23.232955 H          1 MOL1         0.0997
      11    C3      20.343424   18.930871   21.749511 C.3        1 MOL1        -0.1329
      12    H8      20.733674   17.903996   21.723030 H          1 MOL1         0.0997
      13    H9      21.161523   19.581013   21.412409 H          1 MOL1         0.0997
      14    C4      19.173990   19.065302   20.743861 C.3        1 MOL1        -0.1305
      15    H10     18.788927   20.094588   20.756640 H          1 MOL1         0.0997
      16    H11     19.560908   18.895323   19.729296 H          1 MOL1         0.0997
      17    C5      18.017387   18.073862   21.006692 C.3        1 MOL1        -0.2320
      18    H12     17.513836   18.283312   21.958446 H          1 MOL1         0.1008
      19    H13     17.262684   18.145390   20.212806 H          1 MOL1         0.1008
      20    H14     18.381782   17.038647   21.030129 H          1 MOL1         0.1008
@<TRIPOS>BOND
    1     1     2    1
    2     1     3    1
    3     1     4    1
    4     1     5    1
    5     5     6    1
    6     5     7    1
    7     5     8    1
    8     8     9    1
    9     8    10    1
   10     8    11    1
   11    11    12    1
   12    11    13    1
   13    11    14    1
   14    14    15    1
   15    14    16    1
   16    14    17    1
   17    17    18    1
   18    17    19    1
   19    17    20    1
@<TRIPOS>SUBSTRUCTURE
       1 MOL1            1 RESIDUE      1      MOL     
@<SCITEGIC>MOL_PROPERTY
VConf Rank
SciTegic.value.IntegerValue
276

@<SCITEGIC>MOL_PROPERTY
Conf_Id
SciTegic.value.IntegerValue
33

@<SCITEGIC>MOL_PROPERTY
Delta U+W
SciTegic.value.DoubleValue
0.703

@<SCITEGIC>MOL_PROPERTY
U+W
SciTegic.value.DoubleValue
-11.075

@<SCITEGIC>MOL_PROPERTY
Grad RMS
SciTegic.value.DoubleValue
0.000000

@<SCITEGIC>MOL_PROPERTY
U
SciTegic.value.DoubleValue
47.080

@<SCITEGIC>MOL_PROPERTY
W
SciTegic.value.DoubleValue
-58.154

@<SCITEGIC>MOL_PROPERTY
W(PB)
SciTegic.value.DoubleValue
-60.053

@<SCITEGIC>MOL_PROPERTY
W(SA)
SciTegic.value.DoubleValue
1.899

@<SCITEGIC>MOL_PROPERTY
Valence
SciTegic.value.DoubleValue
1.943

@<SCITEGIC>MOL_PROPERTY
Coulomb
SciTegic.value.DoubleValue
44.572

@<SCITEGIC>MOL_PROPERTY
VdW
SciTegic.value.DoubleValue
0.565

@<SCITEGIC>MOL_PROPERTY
VdW6
SciTegic.value.DoubleValue
-4.575

@<SCITEGIC>MOL_PROPERTY
VdW12
SciTegic.value.DoubleValue
5.139

@<SCITEGIC>MOL_PROPERTY
Bond
SciTegic.value.DoubleValue
0.158

@<SCITEGIC>MOL_PROPERTY
Angle
SciTegic.value.DoubleValue
0.700

@<SCITEGIC>MOL_PROPERTY
Pdih
SciTegic.value.DoubleValue
1.085

@<SCITEGIC>MOL_PROPERTY
Idih
SciTegic.value.DoubleValue
0.000

@<SCITEGIC>MOL_PROPERTY
Tether
SciTegic.value.DoubleValue
0.000

@<TRIPOS>MOLECULE
guest-s11_confgen4.mol2 : confsearch ligand conformer 277
          20          19           1
SMALL
USER_CHARGES
 
@<TRIPOS>ATOM
       1    N1      19.416529   16.467130   22.691573 N.4        1 MOL1        -0.5919
       2    H1      18.961669   15.622113   22.330258 H          1 MOL1         0.3682
       3    H2      20.186690   16.156951   23.292267 H          1 MOL1         0.3682
       4    H3      18.734646   16.938731   23.292877 H          1 MOL1         0.3682
       5    C1      19.901059   17.367881   21.571734 C.3        1 MOL1         0.0252
       6    H4      19.038399   17.642074   20.958481 H          1 MOL1         0.0971
       7    H5      20.586914   16.784251   20.951590 H          1 MOL1         0.0971
       8    C2      20.616187   18.642845   22.060529 C.3        1 MOL1        -0.1369
       9    H6      21.471585   18.364607   22.690267 H          1 MOL1         0.0997
      10    H7      21.026576   19.158050   21.183173 H          1 MOL1         0.0997
      11    C3      19.673688   19.597997   22.835446 C.3        1 MOL1        -0.1329
      12    H8      19.237623   19.066236   23.691417 H          1 MOL1         0.0997
      13    H9      18.832378   19.889956   22.191687 H          1 MOL1         0.0997
      14    C4      20.383135   20.867674   23.366088 C.3        1 MOL1        -0.1305
      15    H10     19.677477   21.428280   23.995142 H          1 MOL1         0.0997
      16    H11     21.217339   20.581074   24.021703 H          1 MOL1         0.0997
      17    C5      20.898465   21.800032   22.245861 C.3        1 MOL1        -0.2320
      18    H12     20.088966   22.076045   21.557723 H          1 MOL1         0.1008
      19    H13     21.304704   22.725761   22.673581 H          1 MOL1         0.1008
      20    H14     21.699423   21.328044   21.663655 H          1 MOL1         0.1008
@<TRIPOS>BOND
    1     1     2    1
    2     1     3    1
    3     1     4    1
    4     1     5    1
    5     5     6    1
    6     5     7    1
    7     5     8    1
    8     8     9    1
    9     8    10    1
   10     8    11    1
   11    11    12    1
   12    11    13    1
   13    11    14    1
   14    14    15    1
   15    14    16    1
   16    14    17    1
   17    17    18    1
   18    17    19    1
   19    17    20    1
@<TRIPOS>SUBSTRUCTURE
       1 MOL1            1 RESIDUE      1      MOL     
@<SCITEGIC>MOL_PROPERTY
VConf Rank
SciTegic.value.IntegerValue
277

@<SCITEGIC>MOL_PROPERTY
Conf_Id
SciTegic.value.IntegerValue
24

@<SCITEGIC>MOL_PROPERTY
Delta U+W
SciTegic.value.DoubleValue
0.847

@<SCITEGIC>MOL_PROPERTY
U+W
SciTegic.value.DoubleValue
-10.931

@<SCITEGIC>MOL_PROPERTY
Grad RMS
SciTegic.value.DoubleValue
0.000000

@<SCITEGIC>MOL_PROPERTY
U
SciTegic.value.DoubleValue
47.080

@<SCITEGIC>MOL_PROPERTY
W
SciTegic.value.DoubleValue
-58.011

@<SCITEGIC>MOL_PROPERTY
W(PB)
SciTegic.value.DoubleValue
-59.914

@<SCITEGIC>MOL_PROPERTY
W(SA)
SciTegic.value.DoubleValue
1.903

@<SCITEGIC>MOL_PROPERTY
Valence
SciTegic.value.DoubleValue
1.943

@<SCITEGIC>MOL_PROPERTY
Coulomb
SciTegic.value.DoubleValue
44.572

@<SCITEGIC>MOL_PROPERTY
VdW
SciTegic.value.DoubleValue
0.565

@<SCITEGIC>MOL_PROPERTY
VdW6
SciTegic.value.DoubleValue
-4.575

@<SCITEGIC>MOL_PROPERTY
VdW12
SciTegic.value.DoubleValue
5.140

@<SCITEGIC>MOL_PROPERTY
Bond
SciTegic.value.DoubleValue
0.158

@<SCITEGIC>MOL_PROPERTY
Angle
SciTegic.value.DoubleValue
0.700

@<SCITEGIC>MOL_PROPERTY
Pdih
SciTegic.value.DoubleValue
1.085

@<SCITEGIC>MOL_PROPERTY
Idih
SciTegic.value.DoubleValue
0.000

@<SCITEGIC>MOL_PROPERTY
Tether
SciTegic.value.DoubleValue
0.000

@<TRIPOS>MOLECULE
guest-s11_confgen4.mol2 : confsearch ligand conformer 278
          20          19           1
SMALL
USER_CHARGES
 
@<TRIPOS>ATOM
       1    N1      21.392422   21.085258   20.931169 N.4        1 MOL1        -0.5919
       2    H1      20.955123   21.858353   20.418740 H          1 MOL1         0.3682
       3    H2      21.853674   21.494372   21.749762 H          1 MOL1         0.3682
       4    H3      22.129508   20.708077   20.327226 H          1 MOL1         0.3682
       5    C1      20.382171   20.025158   21.320922 C.3        1 MOL1         0.0252
       6    H4      19.910514   19.655214   20.406559 H          1 MOL1         0.0971
       7    H5      19.614285   20.502759   21.935114 H          1 MOL1         0.0971
       8    C2      21.007216   18.848462   22.093793 C.3        1 MOL1        -0.1369
       9    H6      21.804883   18.402434   21.485066 H          1 MOL1         0.0997
      10    H7      21.488881   19.219912   23.007291 H          1 MOL1         0.0997
      11    C3      19.975440   17.748613   22.448426 C.3        1 MOL1        -0.1329
      12    H8      20.488444   16.938658   22.985141 H          1 MOL1         0.0997
      13    H9      19.596567   17.302049   21.518626 H          1 MOL1         0.0997
      14    C4      18.771168   18.234491   23.295111 C.3        1 MOL1        -0.1305
      15    H10     18.182649   18.970606   22.730702 H          1 MOL1         0.0997
      16    H11     18.099433   17.382363   23.469847 H          1 MOL1         0.0997
      17    C5      19.181132   18.833027   24.659915 C.3        1 MOL1        -0.2320
      18    H12     18.291933   19.074475   25.256515 H          1 MOL1         0.1008
      19    H13     19.788934   18.123217   25.235867 H          1 MOL1         0.1008
      20    H14     19.756905   19.758794   24.537120 H          1 MOL1         0.1008
@<TRIPOS>BOND
    1     1     2    1
    2     1     3    1
    3     1     4    1
    4     1     5    1
    5     5     6    1
    6     5     7    1
    7     5     8    1
    8     8     9    1
    9     8    10    1
   10     8    11    1
   11    11    12    1
   12    11    13    1
   13    11    14    1
   14    14    15    1
   15    14    16    1
   16    14    17    1
   17    17    18    1
   18    17    19    1
   19    17    20    1
@<TRIPOS>SUBSTRUCTURE
       1 MOL1            1 RESIDUE      1      MOL     
@<SCITEGIC>MOL_PROPERTY
VConf Rank
SciTegic.value.IntegerValue
278

@<SCITEGIC>MOL_PROPERTY
Conf_Id
SciTegic.value.IntegerValue
64

@<SCITEGIC>MOL_PROPERTY
Delta U+W
SciTegic.value.DoubleValue
0.707

@<SCITEGIC>MOL_PROPERTY
U+W
SciTegic.value.DoubleValue
-11.070

@<SCITEGIC>MOL_PROPERTY
Grad RMS
SciTegic.value.DoubleValue
0.000000

@<SCITEGIC>MOL_PROPERTY
U
SciTegic.value.DoubleValue
47.077

@<SCITEGIC>MOL_PROPERTY
W
SciTegic.value.DoubleValue
-58.148

@<SCITEGIC>MOL_PROPERTY
W(PB)
SciTegic.value.DoubleValue
-60.054

@<SCITEGIC>MOL_PROPERTY
W(SA)
SciTegic.value.DoubleValue
1.906

@<SCITEGIC>MOL_PROPERTY
Valence
SciTegic.value.DoubleValue
2.039

@<SCITEGIC>MOL_PROPERTY
Coulomb
SciTegic.value.DoubleValue
44.655

@<SCITEGIC>MOL_PROPERTY
VdW
SciTegic.value.DoubleValue
0.383

@<SCITEGIC>MOL_PROPERTY
VdW6
SciTegic.value.DoubleValue
-4.912

@<SCITEGIC>MOL_PROPERTY
VdW12
SciTegic.value.DoubleValue
5.295

@<SCITEGIC>MOL_PROPERTY
Bond
SciTegic.value.DoubleValue
0.159

@<SCITEGIC>MOL_PROPERTY
Angle
SciTegic.value.DoubleValue
0.856

@<SCITEGIC>MOL_PROPERTY
Pdih
SciTegic.value.DoubleValue
1.024

@<SCITEGIC>MOL_PROPERTY
Idih
SciTegic.value.DoubleValue
0.000

@<SCITEGIC>MOL_PROPERTY
Tether
SciTegic.value.DoubleValue
0.000

@<TRIPOS>MOLECULE
guest-s11_confgen4.mol2 : confsearch ligand conformer 279
          20          19           1
SMALL
USER_CHARGES
 
@<TRIPOS>ATOM
       1    N1      22.943796   18.989686   22.386749 N.4        1 MOL1        -0.5919
       2    H1      23.323164   18.423241   21.621551 H          1 MOL1         0.3682
       3    H2      22.984743   19.968485   22.085920 H          1 MOL1         0.3682
       4    H3      23.590896   18.893815   23.176406 H          1 MOL1         0.3682
       5    C1      21.535993   18.569497   22.758044 C.3        1 MOL1         0.0252
       6    H4      21.209564   19.191989   23.595261 H          1 MOL1         0.0971
       7    H5      21.571291   17.530106   23.095388 H          1 MOL1         0.0971
       8    C2      20.537583   18.702076   21.592616 C.3        1 MOL1        -0.1369
       9    H6      20.508192   19.743355   21.247175 H          1 MOL1         0.0997
      10    H7      20.896416   18.106180   20.742964 H          1 MOL1         0.0997
      11    C3      19.111356   18.227916   21.968176 C.3        1 MOL1        -0.1329
      12    H8      19.140163   17.152050   22.189933 H          1 MOL1         0.0997
      13    H9      18.457137   18.338188   21.092333 H          1 MOL1         0.0997
      14    C4      18.475226   18.968420   23.172425 C.3        1 MOL1        -0.1305
      15    H10     17.480142   18.541307   23.360214 H          1 MOL1         0.0997
      16    H11     19.059299   18.782400   24.084034 H          1 MOL1         0.0997
      17    C5      18.329391   20.491038   22.950217 C.3        1 MOL1        -0.2320
      18    H12     17.766053   20.704032   22.032470 H          1 MOL1         0.1008
      19    H13     17.791490   20.952136   23.788641 H          1 MOL1         0.1008
      20    H14     19.307323   20.982716   22.875802 H          1 MOL1         0.1008
@<TRIPOS>BOND
    1     1     2    1
    2     1     3    1
    3     1     4    1
    4     1     5    1
    5     5     6    1
    6     5     7    1
    7     5     8    1
    8     8     9    1
    9     8    10    1
   10     8    11    1
   11    11    12    1
   12    11    13    1
   13    11    14    1
   14    14    15    1
   15    14    16    1
   16    14    17    1
   17    17    18    1
   18    17    19    1
   19    17    20    1
@<TRIPOS>SUBSTRUCTURE
       1 MOL1            1 RESIDUE      1      MOL     
@<SCITEGIC>MOL_PROPERTY
VConf Rank
SciTegic.value.IntegerValue
279

@<SCITEGIC>MOL_PROPERTY
Conf_Id
SciTegic.value.IntegerValue
22

@<SCITEGIC>MOL_PROPERTY
Delta U+W
SciTegic.value.DoubleValue
0.731

@<SCITEGIC>MOL_PROPERTY
U+W
SciTegic.value.DoubleValue
-11.047

@<SCITEGIC>MOL_PROPERTY
Grad RMS
SciTegic.value.DoubleValue
0.000000

@<SCITEGIC>MOL_PROPERTY
U
SciTegic.value.DoubleValue
47.078

@<SCITEGIC>MOL_PROPERTY
W
SciTegic.value.DoubleValue
-58.125

@<SCITEGIC>MOL_PROPERTY
W(PB)
SciTegic.value.DoubleValue
-60.031

@<SCITEGIC>MOL_PROPERTY
W(SA)
SciTegic.value.DoubleValue
1.906

@<SCITEGIC>MOL_PROPERTY
Valence
SciTegic.value.DoubleValue
2.039

@<SCITEGIC>MOL_PROPERTY
Coulomb
SciTegic.value.DoubleValue
44.655

@<SCITEGIC>MOL_PROPERTY
VdW
SciTegic.value.DoubleValue
0.383

@<SCITEGIC>MOL_PROPERTY
VdW6
SciTegic.value.DoubleValue
-4.913

@<SCITEGIC>MOL_PROPERTY
VdW12
SciTegic.value.DoubleValue
5.296

@<SCITEGIC>MOL_PROPERTY
Bond
SciTegic.value.DoubleValue
0.159

@<SCITEGIC>MOL_PROPERTY
Angle
SciTegic.value.DoubleValue
0.856

@<SCITEGIC>MOL_PROPERTY
Pdih
SciTegic.value.DoubleValue
1.024

@<SCITEGIC>MOL_PROPERTY
Idih
SciTegic.value.DoubleValue
0.000

@<SCITEGIC>MOL_PROPERTY
Tether
SciTegic.value.DoubleValue
0.000

@<TRIPOS>MOLECULE
guest-s11_confgen4.mol2 : confsearch ligand conformer 280
          20          19           1
SMALL
USER_CHARGES
 
@<TRIPOS>ATOM
       1    N1      22.363233   20.574255   21.561788 N.4        1 MOL1        -0.5919
       2    H1      22.785258   20.917680   22.430286 H          1 MOL1         0.3682
       3    H2      23.053306   19.964189   21.112423 H          1 MOL1         0.3682
       4    H3      22.241411   21.387076   20.948621 H          1 MOL1         0.3682
       5    C1      21.052239   19.857116   21.814013 C.3        1 MOL1         0.0252
       6    H4      20.646671   19.543791   20.848230 H          1 MOL1         0.0971
       7    H5      20.362935   20.575008   22.264299 H          1 MOL1         0.0971
       8    C2      21.200391   18.634110   22.736499 C.3        1 MOL1        -0.1369
       9    H6      21.983695   17.979476   22.331763 H          1 MOL1         0.0997
      10    H7      21.550223   18.961681   23.724478 H          1 MOL1         0.0997
      11    C3      19.900749   17.804552   22.893587 C.3        1 MOL1        -0.1329
      12    H8      20.146875   16.916288   23.491885 H          1 MOL1         0.0997
      13    H9      19.574539   17.422692   21.916285 H          1 MOL1         0.0997
      14    C4      18.733383   18.546120   23.595387 C.3        1 MOL1        -0.1305
      15    H10     18.104579   17.799270   24.100288 H          1 MOL1         0.0997
      16    H11     19.119765   19.200826   24.388993 H          1 MOL1         0.0997
      17    C5      17.830047   19.349031   22.629905 C.3        1 MOL1        -0.2320
      18    H12     18.364306   20.176758   22.152088 H          1 MOL1         0.1008
      19    H13     17.426002   18.702934   21.839772 H          1 MOL1         0.1008
      20    H14     16.978999   19.779757   23.173205 H          1 MOL1         0.1008
@<TRIPOS>BOND
    1     1     2    1
    2     1     3    1
    3     1     4    1
    4     1     5    1
    5     5     6    1
    6     5     7    1
    7     5     8    1
    8     8     9    1
    9     8    10    1
   10     8    11    1
   11    11    12    1
   12    11    13    1
   13    11    14    1
   14    14    15    1
   15    14    16    1
   16    14    17    1
   17    17    18    1
   18    17    19    1
   19    17    20    1
@<TRIPOS>SUBSTRUCTURE
       1 MOL1            1 RESIDUE      1      MOL     
@<SCITEGIC>MOL_PROPERTY
VConf Rank
SciTegic.value.IntegerValue
280

@<SCITEGIC>MOL_PROPERTY
Conf_Id
SciTegic.value.IntegerValue
61

@<SCITEGIC>MOL_PROPERTY
Delta U+W
SciTegic.value.DoubleValue
2.669

@<SCITEGIC>MOL_PROPERTY
U+W
SciTegic.value.DoubleValue
-9.108

@<SCITEGIC>MOL_PROPERTY
Grad RMS
SciTegic.value.DoubleValue
0.000000

@<SCITEGIC>MOL_PROPERTY
U
SciTegic.value.DoubleValue
48.916

@<SCITEGIC>MOL_PROPERTY
W
SciTegic.value.DoubleValue
-58.025

@<SCITEGIC>MOL_PROPERTY
W(PB)
SciTegic.value.DoubleValue
-59.935

@<SCITEGIC>MOL_PROPERTY
W(SA)
SciTegic.value.DoubleValue
1.911

@<SCITEGIC>MOL_PROPERTY
Valence
SciTegic.value.DoubleValue
3.785

@<SCITEGIC>MOL_PROPERTY
Coulomb
SciTegic.value.DoubleValue
44.716

@<SCITEGIC>MOL_PROPERTY
VdW
SciTegic.value.DoubleValue
0.415

@<SCITEGIC>MOL_PROPERTY
VdW6
SciTegic.value.DoubleValue
-4.836

@<SCITEGIC>MOL_PROPERTY
VdW12
SciTegic.value.DoubleValue
5.251

@<SCITEGIC>MOL_PROPERTY
Bond
SciTegic.value.DoubleValue
0.175

@<SCITEGIC>MOL_PROPERTY
Angle
SciTegic.value.DoubleValue
1.195

@<SCITEGIC>MOL_PROPERTY
Pdih
SciTegic.value.DoubleValue
2.415

@<SCITEGIC>MOL_PROPERTY
Idih
SciTegic.value.DoubleValue
0.000

@<SCITEGIC>MOL_PROPERTY
Tether
SciTegic.value.DoubleValue
0.000

@<TRIPOS>MOLECULE
guest-s11_confgen4.mol2 : confsearch ligand conformer 281
          20          19           1
SMALL
USER_CHARGES
 
@<TRIPOS>ATOM
       1    N1      19.344330   20.923114   23.484959 N.4        1 MOL1        -0.5919
       2    H1      18.663340   21.277397   24.164942 H          1 MOL1         0.3682
       3    H2      19.808648   21.740566   23.076937 H          1 MOL1         0.3682
       4    H3      18.813698   20.471734   22.735486 H          1 MOL1         0.3682
       5    C1      20.337949   19.974124   24.127387 C.3        1 MOL1         0.0252
       6    H4      19.785413   19.154577   24.594703 H          1 MOL1         0.0971
       7    H5      20.845916   20.533064   24.918030 H          1 MOL1         0.0971
       8    C2      21.395144   19.406914   23.156777 C.3        1 MOL1        -0.1369
       9    H6      21.760849   20.201042   22.492371 H          1 MOL1         0.0997
      10    H7      22.261258   19.091997   23.753890 H          1 MOL1         0.0997
      11    C3      20.920494   18.185187   22.328609 C.3        1 MOL1        -0.1329
      12    H8      20.613068   17.378880   23.008921 H          1 MOL1         0.0997
      13    H9      21.781649   17.798273   21.766301 H          1 MOL1         0.0997
      14    C4      19.772834   18.489108   21.337236 C.3        1 MOL1        -0.1305
      15    H10     18.855305   18.732787   21.887339 H          1 MOL1         0.0997
      16    H11     20.030045   19.364587   20.724602 H          1 MOL1         0.0997
      17    C5      19.486704   17.286262   20.412948 C.3        1 MOL1        -0.2320
      18    H12     18.664160   17.514505   19.722747 H          1 MOL1         0.1008
      19    H13     20.368785   17.030803   19.811370 H          1 MOL1         0.1008
      20    H14     19.201706   16.400109   20.994995 H          1 MOL1         0.1008
@<TRIPOS>BOND
    1     1     2    1
    2     1     3    1
    3     1     4    1
    4     1     5    1
    5     5     6    1
    6     5     7    1
    7     5     8    1
    8     8     9    1
    9     8    10    1
   10     8    11    1
   11    11    12    1
   12    11    13    1
   13    11    14    1
   14    14    15    1
   15    14    16    1
   16    14    17    1
   17    17    18    1
   18    17    19    1
   19    17    20    1
@<TRIPOS>SUBSTRUCTURE
       1 MOL1            1 RESIDUE      1      MOL     
@<SCITEGIC>MOL_PROPERTY
VConf Rank
SciTegic.value.IntegerValue
281

@<SCITEGIC>MOL_PROPERTY
Conf_Id
SciTegic.value.IntegerValue
69

@<SCITEGIC>MOL_PROPERTY
Delta U+W
SciTegic.value.DoubleValue
2.811

@<SCITEGIC>MOL_PROPERTY
U+W
SciTegic.value.DoubleValue
-8.967

@<SCITEGIC>MOL_PROPERTY
Grad RMS
SciTegic.value.DoubleValue
0.000000

@<SCITEGIC>MOL_PROPERTY
U
SciTegic.value.DoubleValue
49.216

@<SCITEGIC>MOL_PROPERTY
W
SciTegic.value.DoubleValue
-58.183

@<SCITEGIC>MOL_PROPERTY
W(PB)
SciTegic.value.DoubleValue
-60.064

@<SCITEGIC>MOL_PROPERTY
W(SA)
SciTegic.value.DoubleValue
1.881

@<SCITEGIC>MOL_PROPERTY
Valence
SciTegic.value.DoubleValue
2.929

@<SCITEGIC>MOL_PROPERTY
Coulomb
SciTegic.value.DoubleValue
46.006

@<SCITEGIC>MOL_PROPERTY
VdW
SciTegic.value.DoubleValue
0.281

@<SCITEGIC>MOL_PROPERTY
VdW6
SciTegic.value.DoubleValue
-4.909

@<SCITEGIC>MOL_PROPERTY
VdW12
SciTegic.value.DoubleValue
5.190

@<SCITEGIC>MOL_PROPERTY
Bond
SciTegic.value.DoubleValue
0.156

@<SCITEGIC>MOL_PROPERTY
Angle
SciTegic.value.DoubleValue
0.974

@<SCITEGIC>MOL_PROPERTY
Pdih
SciTegic.value.DoubleValue
1.799

@<SCITEGIC>MOL_PROPERTY
Idih
SciTegic.value.DoubleValue
0.000

@<SCITEGIC>MOL_PROPERTY
Tether
SciTegic.value.DoubleValue
0.000

@<TRIPOS>MOLECULE
guest-s11_confgen4.mol2 : confsearch ligand conformer 282
          20          19           1
SMALL
USER_CHARGES
 
@<TRIPOS>ATOM
       1    N1      20.786098   19.095754   20.242608 N.4        1 MOL1        -0.5919
       2    H1      21.277901   18.582068   20.978329 H          1 MOL1         0.3682
       3    H2      20.202376   18.419737   19.740042 H          1 MOL1         0.3682
       4    H3      21.495623   19.425636   19.579739 H          1 MOL1         0.3682
       5    C1      19.964830   20.241380   20.802632 C.3        1 MOL1         0.0252
       6    H4      19.489013   20.737007   19.952039 H          1 MOL1         0.0971
       7    H5      20.642248   20.957703   21.275207 H          1 MOL1         0.0971
       8    C2      18.873938   19.811405   21.805904 C.3        1 MOL1        -0.1369
       9    H6      18.110773   20.600702   21.827388 H          1 MOL1         0.0997
      10    H7      18.363335   18.909399   21.443298 H          1 MOL1         0.0997
      11    C3      19.379036   19.600389   23.256462 C.3        1 MOL1        -0.1329
      12    H8      18.506793   19.413433   23.898115 H          1 MOL1         0.0997
      13    H9      19.834783   20.530144   23.624313 H          1 MOL1         0.0997
      14    C4      20.380756   18.433787   23.423528 C.3        1 MOL1        -0.1305
      15    H10     19.974836   17.523302   22.960723 H          1 MOL1         0.0997
      16    H11     21.321784   18.669784   22.911059 H          1 MOL1         0.0997
      17    C5      20.687446   18.156564   24.910843 C.3        1 MOL1        -0.2320
      18    H12     19.777293   17.876388   25.457052 H          1 MOL1         0.1008
      19    H13     21.406466   17.333223   25.011697 H          1 MOL1         0.1008
      20    H14     21.118744   19.041580   25.396642 H          1 MOL1         0.1008
@<TRIPOS>BOND
    1     1     2    1
    2     1     3    1
    3     1     4    1
    4     1     5    1
    5     5     6    1
    6     5     7    1
    7     5     8    1
    8     8     9    1
    9     8    10    1
   10     8    11    1
   11    11    12    1
   12    11    13    1
   13    11    14    1
   14    14    15    1
   15    14    16    1
   16    14    17    1
   17    17    18    1
   18    17    19    1
   19    17    20    1
@<TRIPOS>SUBSTRUCTURE
       1 MOL1            1 RESIDUE      1      MOL     
@<SCITEGIC>MOL_PROPERTY
VConf Rank
SciTegic.value.IntegerValue
282

@<SCITEGIC>MOL_PROPERTY
Conf_Id
SciTegic.value.IntegerValue
26

@<SCITEGIC>MOL_PROPERTY
Delta U+W
SciTegic.value.DoubleValue
2.809

@<SCITEGIC>MOL_PROPERTY
U+W
SciTegic.value.DoubleValue
-8.969

@<SCITEGIC>MOL_PROPERTY
Grad RMS
SciTegic.value.DoubleValue
0.000000

@<SCITEGIC>MOL_PROPERTY
U
SciTegic.value.DoubleValue
49.216

@<SCITEGIC>MOL_PROPERTY
W
SciTegic.value.DoubleValue
-58.185

@<SCITEGIC>MOL_PROPERTY
W(PB)
SciTegic.value.DoubleValue
-60.088

@<SCITEGIC>MOL_PROPERTY
W(SA)
SciTegic.value.DoubleValue
1.903

@<SCITEGIC>MOL_PROPERTY
Valence
SciTegic.value.DoubleValue
2.929

@<SCITEGIC>MOL_PROPERTY
Coulomb
SciTegic.value.DoubleValue
46.006

@<SCITEGIC>MOL_PROPERTY
VdW
SciTegic.value.DoubleValue
0.281

@<SCITEGIC>MOL_PROPERTY
VdW6
SciTegic.value.DoubleValue
-4.909

@<SCITEGIC>MOL_PROPERTY
VdW12
SciTegic.value.DoubleValue
5.190

@<SCITEGIC>MOL_PROPERTY
Bond
SciTegic.value.DoubleValue
0.156

@<SCITEGIC>MOL_PROPERTY
Angle
SciTegic.value.DoubleValue
0.974

@<SCITEGIC>MOL_PROPERTY
Pdih
SciTegic.value.DoubleValue
1.799

@<SCITEGIC>MOL_PROPERTY
Idih
SciTegic.value.DoubleValue
0.000

@<SCITEGIC>MOL_PROPERTY
Tether
SciTegic.value.DoubleValue
0.000

@<TRIPOS>MOLECULE
guest-s11_confgen4.mol2 : confsearch ligand conformer 283
          20          19           1
SMALL
USER_CHARGES
 
@<TRIPOS>ATOM
       1    N1      22.343266   18.301056   22.904994 N.4        1 MOL1        -0.5919
       2    H1      22.427082   18.949340   22.116551 H          1 MOL1         0.3682
       3    H2      22.860183   18.710072   23.689557 H          1 MOL1         0.3682
       4    H3      22.834170   17.440660   22.640342 H          1 MOL1         0.3682
       5    C1      20.893626   18.036138   23.261871 C.3        1 MOL1         0.0252
       6    H4      20.879453   17.316776   24.085173 H          1 MOL1         0.0971
       7    H5      20.410210   17.572244   22.398133 H          1 MOL1         0.0971
       8    C2      20.115890   19.302118   23.675048 C.3        1 MOL1        -0.1369
       9    H6      19.105406   19.010049   23.988333 H          1 MOL1         0.0997
      10    H7      20.589525   19.740819   24.563220 H          1 MOL1         0.0997
      11    C3      20.025078   20.378030   22.560974 C.3        1 MOL1        -0.1329
      12    H8      21.026460   20.784757   22.366003 H          1 MOL1         0.0997
      13    H9      19.429046   21.222714   22.933068 H          1 MOL1         0.0997
      14    C4      19.416243   19.880853   21.224873 C.3        1 MOL1        -0.1305
      15    H10     19.420582   20.712632   20.506559 H          1 MOL1         0.0997
      16    H11     20.050792   19.099564   20.785064 H          1 MOL1         0.0997
      17    C5      17.969986   19.354933   21.368377 C.3        1 MOL1        -0.2320
      18    H12     17.317608   20.112425   21.821776 H          1 MOL1         0.1008
      19    H13     17.554381   19.099441   20.385076 H          1 MOL1         0.1008
      20    H14     17.929885   18.450774   21.988450 H          1 MOL1         0.1008
@<TRIPOS>BOND
    1     1     2    1
    2     1     3    1
    3     1     4    1
    4     1     5    1
    5     5     6    1
    6     5     7    1
    7     5     8    1
    8     8     9    1
    9     8    10    1
   10     8    11    1
   11    11    12    1
   12    11    13    1
   13    11    14    1
   14    14    15    1
   15    14    16    1
   16    14    17    1
   17    17    18    1
   18    17    19    1
   19    17    20    1
@<TRIPOS>SUBSTRUCTURE
       1 MOL1            1 RESIDUE      1      MOL     
@<SCITEGIC>MOL_PROPERTY
VConf Rank
SciTegic.value.IntegerValue
283

@<SCITEGIC>MOL_PROPERTY
Conf_Id
SciTegic.value.IntegerValue
2

@<SCITEGIC>MOL_PROPERTY
Delta U+W
SciTegic.value.DoubleValue
0.994

@<SCITEGIC>MOL_PROPERTY
U+W
SciTegic.value.DoubleValue
-10.784

@<SCITEGIC>MOL_PROPERTY
Grad RMS
SciTegic.value.DoubleValue
0.000000

@<SCITEGIC>MOL_PROPERTY
U
SciTegic.value.DoubleValue
47.562

@<SCITEGIC>MOL_PROPERTY
W
SciTegic.value.DoubleValue
-58.346

@<SCITEGIC>MOL_PROPERTY
W(PB)
SciTegic.value.DoubleValue
-60.221

@<SCITEGIC>MOL_PROPERTY
W(SA)
SciTegic.value.DoubleValue
1.875

@<SCITEGIC>MOL_PROPERTY
Valence
SciTegic.value.DoubleValue
2.149

@<SCITEGIC>MOL_PROPERTY
Coulomb
SciTegic.value.DoubleValue
45.034

@<SCITEGIC>MOL_PROPERTY
VdW
SciTegic.value.DoubleValue
0.378

@<SCITEGIC>MOL_PROPERTY
VdW6
SciTegic.value.DoubleValue
-5.599

@<SCITEGIC>MOL_PROPERTY
VdW12
SciTegic.value.DoubleValue
5.977

@<SCITEGIC>MOL_PROPERTY
Bond
SciTegic.value.DoubleValue
0.185

@<SCITEGIC>MOL_PROPERTY
Angle
SciTegic.value.DoubleValue
0.935

@<SCITEGIC>MOL_PROPERTY
Pdih
SciTegic.value.DoubleValue
1.028

@<SCITEGIC>MOL_PROPERTY
Idih
SciTegic.value.DoubleValue
0.000

@<SCITEGIC>MOL_PROPERTY
Tether
SciTegic.value.DoubleValue
0.000

@<TRIPOS>MOLECULE
guest-s11_confgen4.mol2 : confsearch ligand conformer 284
          20          19           1
SMALL
USER_CHARGES
 
@<TRIPOS>ATOM
       1    N1      21.444190   20.622156   23.829528 N.4        1 MOL1        -0.5919
       2    H1      22.016105   20.220986   24.579204 H          1 MOL1         0.3682
       3    H2      21.961745   20.497846   22.954529 H          1 MOL1         0.3682
       4    H3      21.387477   21.630830   24.004653 H          1 MOL1         0.3682
       5    C1      20.070762   19.983025   23.764673 C.3        1 MOL1         0.0252
       6    H4      19.503533   20.476055   22.970881 H          1 MOL1         0.0971
       7    H5      19.566404   20.180412   24.714498 H          1 MOL1         0.0971
       8    C2      20.106340   18.462359   23.510516 C.3        1 MOL1        -0.1369
       9    H6      20.648753   17.973655   24.330634 H          1 MOL1         0.0997
      10    H7      19.081520   18.072134   23.555251 H          1 MOL1         0.0997
      11    C3      20.756717   18.063930   22.159495 C.3        1 MOL1        -0.1329
      12    H8      20.707017   16.971625   22.051794 H          1 MOL1         0.0997
      13    H9      21.826524   18.311129   22.184228 H          1 MOL1         0.0997
      14    C4      20.117768   18.723543   20.910619 C.3        1 MOL1        -0.1305
      15    H10     20.242071   19.814152   20.950844 H          1 MOL1         0.0997
      16    H11     20.666474   18.390239   20.018611 H          1 MOL1         0.0997
      17    C5      18.621856   18.378032   20.732554 C.3        1 MOL1        -0.2320
      18    H12     18.013317   18.791718   21.546278 H          1 MOL1         0.1008
      19    H13     18.240556   18.793974   19.791019 H          1 MOL1         0.1008
      20    H14     18.468084   17.291475   20.705917 H          1 MOL1         0.1008
@<TRIPOS>BOND
    1     1     2    1
    2     1     3    1
    3     1     4    1
    4     1     5    1
    5     5     6    1
    6     5     7    1
    7     5     8    1
    8     8     9    1
    9     8    10    1
   10     8    11    1
   11    11    12    1
   12    11    13    1
   13    11    14    1
   14    14    15    1
   15    14    16    1
   16    14    17    1
   17    17    18    1
   18    17    19    1
   19    17    20    1
@<TRIPOS>SUBSTRUCTURE
       1 MOL1            1 RESIDUE      1      MOL     
@<SCITEGIC>MOL_PROPERTY
VConf Rank
SciTegic.value.IntegerValue
284

@<SCITEGIC>MOL_PROPERTY
Conf_Id
SciTegic.value.IntegerValue
1

@<SCITEGIC>MOL_PROPERTY
Delta U+W
SciTegic.value.DoubleValue
1.032

@<SCITEGIC>MOL_PROPERTY
U+W
SciTegic.value.DoubleValue
-10.746

@<SCITEGIC>MOL_PROPERTY
Grad RMS
SciTegic.value.DoubleValue
0.000000

@<SCITEGIC>MOL_PROPERTY
U
SciTegic.value.DoubleValue
47.562

@<SCITEGIC>MOL_PROPERTY
W
SciTegic.value.DoubleValue
-58.308

@<SCITEGIC>MOL_PROPERTY
W(PB)
SciTegic.value.DoubleValue
-60.184

@<SCITEGIC>MOL_PROPERTY
W(SA)
SciTegic.value.DoubleValue
1.877

@<SCITEGIC>MOL_PROPERTY
Valence
SciTegic.value.DoubleValue
2.149

@<SCITEGIC>MOL_PROPERTY
Coulomb
SciTegic.value.DoubleValue
45.035

@<SCITEGIC>MOL_PROPERTY
VdW
SciTegic.value.DoubleValue
0.378

@<SCITEGIC>MOL_PROPERTY
VdW6
SciTegic.value.DoubleValue
-5.599

@<SCITEGIC>MOL_PROPERTY
VdW12
SciTegic.value.DoubleValue
5.978

@<SCITEGIC>MOL_PROPERTY
Bond
SciTegic.value.DoubleValue
0.185

@<SCITEGIC>MOL_PROPERTY
Angle
SciTegic.value.DoubleValue
0.935

@<SCITEGIC>MOL_PROPERTY
Pdih
SciTegic.value.DoubleValue
1.028

@<SCITEGIC>MOL_PROPERTY
Idih
SciTegic.value.DoubleValue
0.000

@<SCITEGIC>MOL_PROPERTY
Tether
SciTegic.value.DoubleValue
0.000

@<TRIPOS>MOLECULE
guest-s11_confgen4.mol2 : confsearch ligand conformer 285
          20          19           1
SMALL
USER_CHARGES
 
@<TRIPOS>ATOM
       1    N1      22.511416   19.434840   22.066818 N.4        1 MOL1        -0.5919
       2    H1      22.790844   19.965277   21.235766 H          1 MOL1         0.3682
       3    H2      22.220386   20.113993   22.775857 H          1 MOL1         0.3682
       4    H3      23.354708   18.972983   22.423037 H          1 MOL1         0.3682
       5    C1      21.411782   18.437674   21.756620 C.3        1 MOL1         0.0252
       6    H4      21.186564   17.889759   22.672910 H          1 MOL1         0.0971
       7    H5      21.810000   17.725676   21.028606 H          1 MOL1         0.0971
       8    C2      20.129690   19.080651   21.186063 C.3        1 MOL1        -0.1369
       9    H6      20.400599   19.628481   20.273752 H          1 MOL1         0.0997
      10    H7      19.437425   18.290252   20.867226 H          1 MOL1         0.0997
      11    C3      19.401835   20.049945   22.156124 C.3        1 MOL1        -0.1329
      12    H8      18.796691   20.739520   21.551383 H          1 MOL1         0.0997
      13    H9      20.124951   20.683670   22.685482 H          1 MOL1         0.0997
      14    C4      18.449998   19.369102   23.173224 C.3        1 MOL1        -0.1305
      15    H10     17.927891   20.155652   23.735977 H          1 MOL1         0.0997
      16    H11     17.669275   18.813119   22.635511 H          1 MOL1         0.0997
      17    C5      19.149740   18.428788   24.179257 C.3        1 MOL1        -0.2320
      18    H12     20.010011   18.919546   24.652384 H          1 MOL1         0.1008
      19    H13     18.452980   18.134162   24.974649 H          1 MOL1         0.1008
      20    H14     19.492504   17.507671   23.693344 H          1 MOL1         0.1008
@<TRIPOS>BOND
    1     1     2    1
    2     1     3    1
    3     1     4    1
    4     1     5    1
    5     5     6    1
    6     5     7    1
    7     5     8    1
    8     8     9    1
    9     8    10    1
   10     8    11    1
   11    11    12    1
   12    11    13    1
   13    11    14    1
   14    14    15    1
   15    14    16    1
   16    14    17    1
   17    17    18    1
   18    17    19    1
   19    17    20    1
@<TRIPOS>SUBSTRUCTURE
       1 MOL1            1 RESIDUE      1      MOL     
@<SCITEGIC>MOL_PROPERTY
VConf Rank
SciTegic.value.IntegerValue
285

@<SCITEGIC>MOL_PROPERTY
Conf_Id
SciTegic.value.IntegerValue
80

@<SCITEGIC>MOL_PROPERTY
Delta U+W
SciTegic.value.DoubleValue
2.920

@<SCITEGIC>MOL_PROPERTY
U+W
SciTegic.value.DoubleValue
-8.857

@<SCITEGIC>MOL_PROPERTY
Grad RMS
SciTegic.value.DoubleValue
0.000000

@<SCITEGIC>MOL_PROPERTY
U
SciTegic.value.DoubleValue
49.434

@<SCITEGIC>MOL_PROPERTY
W
SciTegic.value.DoubleValue
-58.292

@<SCITEGIC>MOL_PROPERTY
W(PB)
SciTegic.value.DoubleValue
-60.170

@<SCITEGIC>MOL_PROPERTY
W(SA)
SciTegic.value.DoubleValue
1.879

@<SCITEGIC>MOL_PROPERTY
Valence
SciTegic.value.DoubleValue
3.798

@<SCITEGIC>MOL_PROPERTY
Coulomb
SciTegic.value.DoubleValue
45.253

@<SCITEGIC>MOL_PROPERTY
VdW
SciTegic.value.DoubleValue
0.384

@<SCITEGIC>MOL_PROPERTY
VdW6
SciTegic.value.DoubleValue
-5.595

@<SCITEGIC>MOL_PROPERTY
VdW12
SciTegic.value.DoubleValue
5.979

@<SCITEGIC>MOL_PROPERTY
Bond
SciTegic.value.DoubleValue
0.198

@<SCITEGIC>MOL_PROPERTY
Angle
SciTegic.value.DoubleValue
1.368

@<SCITEGIC>MOL_PROPERTY
Pdih
SciTegic.value.DoubleValue
2.231

@<SCITEGIC>MOL_PROPERTY
Idih
SciTegic.value.DoubleValue
0.000

@<SCITEGIC>MOL_PROPERTY
Tether
SciTegic.value.DoubleValue
0.000

@<TRIPOS>MOLECULE
guest-s11_confgen4.mol2 : confsearch ligand conformer 286
          20          19           1
SMALL
USER_CHARGES
 
@<TRIPOS>ATOM
       1    N1      22.143207   17.985594   22.922338 N.4        1 MOL1        -0.5919
       2    H1      22.975338   18.486661   23.248804 H          1 MOL1         0.3682
       3    H2      22.320070   16.986414   23.069667 H          1 MOL1         0.3682
       4    H3      22.079046   18.131861   21.910816 H          1 MOL1         0.3682
       5    C1      20.889026   18.447020   23.639188 C.3        1 MOL1         0.0252
       6    H4      21.015684   18.220310   24.701301 H          1 MOL1         0.0971
       7    H5      20.051896   17.854210   23.267292 H          1 MOL1         0.0971
       8    C2      20.595487   19.953555   23.475134 C.3        1 MOL1        -0.1369
       9    H6      19.754700   20.232908   24.123715 H          1 MOL1         0.0997
      10    H7      21.462989   20.512249   23.850795 H          1 MOL1         0.0997
      11    C3      20.301181   20.403375   22.018641 C.3        1 MOL1        -0.1329
      12    H8      20.989159   19.915709   21.316082 H          1 MOL1         0.0997
      13    H9      20.522961   21.477197   21.946927 H          1 MOL1         0.0997
      14    C4      18.836422   20.201143   21.552136 C.3        1 MOL1        -0.1305
      15    H10     18.158138   20.770436   22.202996 H          1 MOL1         0.0997
      16    H11     18.731011   20.638381   20.549310 H          1 MOL1         0.0997
      17    C5      18.377079   18.727480   21.495160 C.3        1 MOL1        -0.2320
      18    H12     18.246216   18.310615   22.500720 H          1 MOL1         0.1008
      19    H13     17.408524   18.648975   20.984603 H          1 MOL1         0.1008
      20    H14     19.096395   18.106154   20.946253 H          1 MOL1         0.1008
@<TRIPOS>BOND
    1     1     2    1
    2     1     3    1
    3     1     4    1
    4     1     5    1
    5     5     6    1
    6     5     7    1
    7     5     8    1
    8     8     9    1
    9     8    10    1
   10     8    11    1
   11    11    12    1
   12    11    13    1
   13    11    14    1
   14    14    15    1
   15    14    16    1
   16    14    17    1
   17    17    18    1
   18    17    19    1
   19    17    20    1
@<TRIPOS>SUBSTRUCTURE
       1 MOL1            1 RESIDUE      1      MOL     
@<SCITEGIC>MOL_PROPERTY
VConf Rank
SciTegic.value.IntegerValue
286

@<SCITEGIC>MOL_PROPERTY
Conf_Id
SciTegic.value.IntegerValue
65

@<SCITEGIC>MOL_PROPERTY
Delta U+W
SciTegic.value.DoubleValue
2.949

@<SCITEGIC>MOL_PROPERTY
U+W
SciTegic.value.DoubleValue
-8.829

@<SCITEGIC>MOL_PROPERTY
Grad RMS
SciTegic.value.DoubleValue
0.000000

@<SCITEGIC>MOL_PROPERTY
U
SciTegic.value.DoubleValue
49.435

@<SCITEGIC>MOL_PROPERTY
W
SciTegic.value.DoubleValue
-58.263

@<SCITEGIC>MOL_PROPERTY
W(PB)
SciTegic.value.DoubleValue
-60.125

@<SCITEGIC>MOL_PROPERTY
W(SA)
SciTegic.value.DoubleValue
1.862

@<SCITEGIC>MOL_PROPERTY
Valence
SciTegic.value.DoubleValue
3.797

@<SCITEGIC>MOL_PROPERTY
Coulomb
SciTegic.value.DoubleValue
45.253

@<SCITEGIC>MOL_PROPERTY
VdW
SciTegic.value.DoubleValue
0.384

@<SCITEGIC>MOL_PROPERTY
VdW6
SciTegic.value.DoubleValue
-5.596

@<SCITEGIC>MOL_PROPERTY
VdW12
SciTegic.value.DoubleValue
5.980

@<SCITEGIC>MOL_PROPERTY
Bond
SciTegic.value.DoubleValue
0.198

@<SCITEGIC>MOL_PROPERTY
Angle
SciTegic.value.DoubleValue
1.369

@<SCITEGIC>MOL_PROPERTY
Pdih
SciTegic.value.DoubleValue
2.230

@<SCITEGIC>MOL_PROPERTY
Idih
SciTegic.value.DoubleValue
0.000

@<SCITEGIC>MOL_PROPERTY
Tether
SciTegic.value.DoubleValue
0.000

@<TRIPOS>MOLECULE
guest-s11_confgen4.mol2 : confsearch ligand conformer 287
          20          19           1
SMALL
USER_CHARGES
 
@<TRIPOS>ATOM
       1    N1      21.439732   20.296336   23.453124 N.4        1 MOL1        -0.5919
       2    H1      21.977396   20.218694   24.322935 H          1 MOL1         0.3682
       3    H2      21.713424   19.512108   22.853288 H          1 MOL1         0.3682
       4    H3      21.746616   21.156999   22.988917 H          1 MOL1         0.3682
       5    C1      19.945632   20.299095   23.712374 C.3        1 MOL1         0.0252
       6    H4      19.734147   21.159750   24.352739 H          1 MOL1         0.0971
       7    H5      19.683847   19.392824   24.264951 H          1 MOL1         0.0971
       8    C2      19.088105   20.399677   22.434508 C.3        1 MOL1        -0.1369
       9    H6      18.108893   20.805693   22.721051 H          1 MOL1         0.0997
      10    H7      19.527406   21.136504   21.749008 H          1 MOL1         0.0997
      11    C3      18.845354   19.057273   21.693640 C.3        1 MOL1        -0.1329
      12    H8      18.181275   19.267018   20.843622 H          1 MOL1         0.0997
      13    H9      18.284473   18.368592   22.340631 H          1 MOL1         0.0997
      14    C4      20.116471   18.357998   21.147934 C.3        1 MOL1        -0.1305
      15    H10     19.866400   17.872140   20.194171 H          1 MOL1         0.0997
      16    H11     20.889863   19.099713   20.907129 H          1 MOL1         0.0997
      17    C5      20.668929   17.271547   22.100947 C.3        1 MOL1        -0.2320
      18    H12     20.878533   17.659983   23.103334 H          1 MOL1         0.1008
      19    H13     19.947379   16.451401   22.210702 H          1 MOL1         0.1008
      20    H14     21.597552   16.842871   21.702102 H          1 MOL1         0.1008
@<TRIPOS>BOND
    1     1     2    1
    2     1     3    1
    3     1     4    1
    4     1     5    1
    5     5     6    1
    6     5     7    1
    7     5     8    1
    8     8     9    1
    9     8    10    1
   10     8    11    1
   11    11    12    1
   12    11    13    1
   13    11    14    1
   14    14    15    1
   15    14    16    1
   16    14    17    1
   17    17    18    1
   18    17    19    1
   19    17    20    1
@<TRIPOS>SUBSTRUCTURE
       1 MOL1            1 RESIDUE      1      MOL     
@<SCITEGIC>MOL_PROPERTY
VConf Rank
SciTegic.value.IntegerValue
287

@<SCITEGIC>MOL_PROPERTY
Conf_Id
SciTegic.value.IntegerValue
77

@<SCITEGIC>MOL_PROPERTY
Delta U+W
SciTegic.value.DoubleValue
5.366

@<SCITEGIC>MOL_PROPERTY
U+W
SciTegic.value.DoubleValue
-6.412

@<SCITEGIC>MOL_PROPERTY
Grad RMS
SciTegic.value.DoubleValue
0.000000

@<SCITEGIC>MOL_PROPERTY
U
SciTegic.value.DoubleValue
51.542

@<SCITEGIC>MOL_PROPERTY
W
SciTegic.value.DoubleValue
-57.954

@<SCITEGIC>MOL_PROPERTY
W(PB)
SciTegic.value.DoubleValue
-59.811

@<SCITEGIC>MOL_PROPERTY
W(SA)
SciTegic.value.DoubleValue
1.857

@<SCITEGIC>MOL_PROPERTY
Valence
SciTegic.value.DoubleValue
5.347

@<SCITEGIC>MOL_PROPERTY
Coulomb
SciTegic.value.DoubleValue
45.870

@<SCITEGIC>MOL_PROPERTY
VdW
SciTegic.value.DoubleValue
0.325

@<SCITEGIC>MOL_PROPERTY
VdW6
SciTegic.value.DoubleValue
-6.161

@<SCITEGIC>MOL_PROPERTY
VdW12
SciTegic.value.DoubleValue
6.486

@<SCITEGIC>MOL_PROPERTY
Bond
SciTegic.value.DoubleValue
0.201

@<SCITEGIC>MOL_PROPERTY
Angle
SciTegic.value.DoubleValue
1.484

@<SCITEGIC>MOL_PROPERTY
Pdih
SciTegic.value.DoubleValue
3.662

@<SCITEGIC>MOL_PROPERTY
Idih
SciTegic.value.DoubleValue
0.000

@<SCITEGIC>MOL_PROPERTY
Tether
SciTegic.value.DoubleValue
0.000

@<TRIPOS>MOLECULE
guest-s11_confgen4.mol2 : confsearch ligand conformer 288
          20          19           1
SMALL
USER_CHARGES
 
@<TRIPOS>ATOM
       1    N1      19.839874   18.970907   24.393313 N.4        1 MOL1        -0.5919
       2    H1      19.544529   18.057842   24.753160 H          1 MOL1         0.3682
       3    H2      20.785538   18.858366   24.015449 H          1 MOL1         0.3682
       4    H3      19.905187   19.602001   25.199003 H          1 MOL1         0.3682
       5    C1      18.882953   19.497167   23.341214 C.3        1 MOL1         0.0252
       6    H4      19.207217   20.497096   23.040887 H          1 MOL1         0.0971
       7    H5      17.902803   19.587227   23.817360 H          1 MOL1         0.0971
       8    C2      18.757834   18.591816   22.099000 C.3        1 MOL1        -0.1369
       9    H6      18.707562   17.539682   22.409315 H          1 MOL1         0.0997
      10    H7      17.791972   18.809043   21.623885 H          1 MOL1         0.0997
      11    C3      19.865386   18.781775   21.027969 C.3        1 MOL1        -0.1329
      12    H8      19.823156   19.802217   20.622531 H          1 MOL1         0.0997
      13    H9      19.622669   18.120996   20.184175 H          1 MOL1         0.0997
      14    C4      21.306737   18.454055   21.494474 C.3        1 MOL1        -0.1305
      15    H10     21.291301   17.687467   22.280837 H          1 MOL1         0.0997
      16    H11     21.852671   18.003301   20.653619 H          1 MOL1         0.0997
      17    C5      22.095386   19.703183   21.954400 C.3        1 MOL1        -0.2320
      18    H12     23.087875   19.418500   22.327365 H          1 MOL1         0.1008
      19    H13     22.244246   20.395926   21.115789 H          1 MOL1         0.1008
      20    H14     21.580977   20.255304   22.748213 H          1 MOL1         0.1008
@<TRIPOS>BOND
    1     1     2    1
    2     1     3    1
    3     1     4    1
    4     1     5    1
    5     5     6    1
    6     5     7    1
    7     5     8    1
    8     8     9    1
    9     8    10    1
   10     8    11    1
   11    11    12    1
   12    11    13    1
   13    11    14    1
   14    14    15    1
   15    14    16    1
   16    14    17    1
   17    17    18    1
   18    17    19    1
   19    17    20    1
@<TRIPOS>SUBSTRUCTURE
       1 MOL1            1 RESIDUE      1      MOL     
@<SCITEGIC>MOL_PROPERTY
VConf Rank
SciTegic.value.IntegerValue
288

@<SCITEGIC>MOL_PROPERTY
Conf_Id
SciTegic.value.IntegerValue
67

@<SCITEGIC>MOL_PROPERTY
Delta U+W
SciTegic.value.DoubleValue
5.353

@<SCITEGIC>MOL_PROPERTY
U+W
SciTegic.value.DoubleValue
-6.425

@<SCITEGIC>MOL_PROPERTY
Grad RMS
SciTegic.value.DoubleValue
0.000000

@<SCITEGIC>MOL_PROPERTY
U
SciTegic.value.DoubleValue
51.541

@<SCITEGIC>MOL_PROPERTY
W
SciTegic.value.DoubleValue
-57.966

@<SCITEGIC>MOL_PROPERTY
W(PB)
SciTegic.value.DoubleValue
-59.821

@<SCITEGIC>MOL_PROPERTY
W(SA)
SciTegic.value.DoubleValue
1.855

@<SCITEGIC>MOL_PROPERTY
Valence
SciTegic.value.DoubleValue
5.347

@<SCITEGIC>MOL_PROPERTY
Coulomb
SciTegic.value.DoubleValue
45.870

@<SCITEGIC>MOL_PROPERTY
VdW
SciTegic.value.DoubleValue
0.325

@<SCITEGIC>MOL_PROPERTY
VdW6
SciTegic.value.DoubleValue
-6.161

@<SCITEGIC>MOL_PROPERTY
VdW12
SciTegic.value.DoubleValue
6.486

@<SCITEGIC>MOL_PROPERTY
Bond
SciTegic.value.DoubleValue
0.201

@<SCITEGIC>MOL_PROPERTY
Angle
SciTegic.value.DoubleValue
1.485

@<SCITEGIC>MOL_PROPERTY
Pdih
SciTegic.value.DoubleValue
3.662

@<SCITEGIC>MOL_PROPERTY
Idih
SciTegic.value.DoubleValue
0.000

@<SCITEGIC>MOL_PROPERTY
Tether
SciTegic.value.DoubleValue
0.000

@<TRIPOS>MOLECULE
guest-s11_confgen4.mol2 : confsearch ligand conformer 289
          20          19           1
SMALL
USER_CHARGES
 
@<TRIPOS>ATOM
       1    N1      18.910678   17.061731   20.336171 N.4        1 MOL1        -0.5919
       2    H1      18.188627   17.675480   19.945860 H          1 MOL1         0.3682
       3    H2      19.252790   16.477982   19.565589 H          1 MOL1         0.3682
       4    H3      18.446043   16.434458   21.000272 H          1 MOL1         0.3682
       5    C1      20.030822   17.847516   20.987561 C.3        1 MOL1         0.0252
       6    H4      20.498594   18.468768   20.218958 H          1 MOL1         0.0971
       7    H5      20.775212   17.134683   21.352619 H          1 MOL1         0.0971
       8    C2      19.550608   18.735408   22.149589 C.3        1 MOL1        -0.1369
       9    H6      18.791704   19.438890   21.781833 H          1 MOL1         0.0997
      10    H7      19.067362   18.109409   22.911604 H          1 MOL1         0.0997
      11    C3      20.721231   19.518104   22.785010 C.3        1 MOL1        -0.1329
      12    H8      21.205674   20.139301   22.018707 H          1 MOL1         0.0997
      13    H9      21.480969   18.811417   23.147205 H          1 MOL1         0.0997
      14    C4      20.250743   20.413362   23.953210 C.3        1 MOL1        -0.1305
      15    H10     19.492075   21.123287   23.594771 H          1 MOL1         0.0997
      16    H11     19.767421   19.795596   24.723153 H          1 MOL1         0.0997
      17    C5      21.423557   21.193427   24.584862 C.3        1 MOL1        -0.2320
      18    H12     21.906184   21.847247   23.846751 H          1 MOL1         0.1008
      19    H13     21.069885   21.822918   25.411724 H          1 MOL1         0.1008
      20    H14     22.183614   20.509203   24.984069 H          1 MOL1         0.1008
@<TRIPOS>BOND
    1     1     2    1
    2     1     3    1
    3     1     4    1
    4     1     5    1
    5     5     6    1
    6     5     7    1
    7     5     8    1
    8     8     9    1
    9     8    10    1
   10     8    11    1
   11    11    12    1
   12    11    13    1
   13    11    14    1
   14    14    15    1
   15    14    16    1
   16    14    17    1
   17    17    18    1
   18    17    19    1
   19    17    20    1
@<TRIPOS>SUBSTRUCTURE
       1 MOL1            1 RESIDUE      1      MOL     
@<SCITEGIC>MOL_PROPERTY
VConf Rank
SciTegic.value.IntegerValue
289

@<SCITEGIC>MOL_PROPERTY
Conf_Id
SciTegic.value.IntegerValue
72

@<SCITEGIC>MOL_PROPERTY
Delta U+W
SciTegic.value.DoubleValue
0.000

@<SCITEGIC>MOL_PROPERTY
U+W
SciTegic.value.DoubleValue
-11.778

@<SCITEGIC>MOL_PROPERTY
Grad RMS
SciTegic.value.DoubleValue
0.000000

@<SCITEGIC>MOL_PROPERTY
U
SciTegic.value.DoubleValue
45.772

@<SCITEGIC>MOL_PROPERTY
W
SciTegic.value.DoubleValue
-57.550

@<SCITEGIC>MOL_PROPERTY
W(PB)
SciTegic.value.DoubleValue
-59.511

@<SCITEGIC>MOL_PROPERTY
W(SA)
SciTegic.value.DoubleValue
1.961

@<SCITEGIC>MOL_PROPERTY
Valence
SciTegic.value.DoubleValue
1.299

@<SCITEGIC>MOL_PROPERTY
Coulomb
SciTegic.value.DoubleValue
44.177

@<SCITEGIC>MOL_PROPERTY
VdW
SciTegic.value.DoubleValue
0.297

@<SCITEGIC>MOL_PROPERTY
VdW6
SciTegic.value.DoubleValue
-3.490

@<SCITEGIC>MOL_PROPERTY
VdW12
SciTegic.value.DoubleValue
3.786

@<SCITEGIC>MOL_PROPERTY
Bond
SciTegic.value.DoubleValue
0.096

@<SCITEGIC>MOL_PROPERTY
Angle
SciTegic.value.DoubleValue
0.381

@<SCITEGIC>MOL_PROPERTY
Pdih
SciTegic.value.DoubleValue
0.822

@<SCITEGIC>MOL_PROPERTY
Idih
SciTegic.value.DoubleValue
0.000

@<SCITEGIC>MOL_PROPERTY
Tether
SciTegic.value.DoubleValue
0.000

@<TRIPOS>MOLECULE
guest-s11_confgen4.mol2 : confsearch ligand conformer 290
          20          19           1
SMALL
USER_CHARGES
 
@<TRIPOS>ATOM
       1    N1      17.535079   20.712904   22.181156 N.4        1 MOL1        -0.5919
       2    H1      16.995219   19.932979   22.569233 H          1 MOL1         0.3682
       3    H2      17.687020   21.382361   22.942145 H          1 MOL1         0.3682
       4    H3      16.933499   21.177226   21.492615 H          1 MOL1         0.3682
       5    C1      18.839971   20.248413   21.566273 C.3        1 MOL1         0.0252
       6    H4      19.345660   21.122735   21.147546 H          1 MOL1         0.0971
       7    H5      18.602509   19.564271   20.747085 H          1 MOL1         0.0971
       8    C2      19.768022   19.546765   22.574082 C.3        1 MOL1        -0.1369
       9    H6      19.990987   20.231786   23.402842 H          1 MOL1         0.0997
      10    H7      19.244210   18.682071   23.000687 H          1 MOL1         0.0997
      11    C3      21.086645   19.092449   21.904784 C.3        1 MOL1        -0.1329
      12    H8      21.557547   19.958015   21.418175 H          1 MOL1         0.0997
      13    H9      20.866666   18.371208   21.105405 H          1 MOL1         0.0997
      14    C4      22.101293   18.472682   22.896272 C.3        1 MOL1        -0.1305
      15    H10     23.041455   18.276291   22.361983 H          1 MOL1         0.0997
      16    H11     22.342516   19.199587   23.684496 H          1 MOL1         0.0997
      17    C5      21.608331   17.155274   23.537330 C.3        1 MOL1        -0.2320
      18    H12     21.333615   16.420627   22.769319 H          1 MOL1         0.1008
      19    H13     22.397257   16.711659   24.158420 H          1 MOL1         0.1008
      20    H14     20.736528   17.321593   24.182093 H          1 MOL1         0.1008
@<TRIPOS>BOND
    1     1     2    1
    2     1     3    1
    3     1     4    1
    4     1     5    1
    5     5     6    1
    6     5     7    1
    7     5     8    1
    8     8     9    1
    9     8    10    1
   10     8    11    1
   11    11    12    1
   12    11    13    1
   13    11    14    1
   14    14    15    1
   15    14    16    1
   16    14    17    1
   17    17    18    1
   18    17    19    1
   19    17    20    1
@<TRIPOS>SUBSTRUCTURE
       1 MOL1            1 RESIDUE      1      MOL     
@<SCITEGIC>MOL_PROPERTY
VConf Rank
SciTegic.value.IntegerValue
290

@<SCITEGIC>MOL_PROPERTY
Conf_Id
SciTegic.value.IntegerValue
42

@<SCITEGIC>MOL_PROPERTY
Delta U+W
SciTegic.value.DoubleValue
0.508

@<SCITEGIC>MOL_PROPERTY
U+W
SciTegic.value.DoubleValue
-11.270

@<SCITEGIC>MOL_PROPERTY
Grad RMS
SciTegic.value.DoubleValue
0.000000

@<SCITEGIC>MOL_PROPERTY
U
SciTegic.value.DoubleValue
46.486

@<SCITEGIC>MOL_PROPERTY
W
SciTegic.value.DoubleValue
-57.756

@<SCITEGIC>MOL_PROPERTY
W(PB)
SciTegic.value.DoubleValue
-59.705

@<SCITEGIC>MOL_PROPERTY
W(SA)
SciTegic.value.DoubleValue
1.949

@<SCITEGIC>MOL_PROPERTY
Valence
SciTegic.value.DoubleValue
1.806

@<SCITEGIC>MOL_PROPERTY
Coulomb
SciTegic.value.DoubleValue
44.248

@<SCITEGIC>MOL_PROPERTY
VdW
SciTegic.value.DoubleValue
0.433

@<SCITEGIC>MOL_PROPERTY
VdW6
SciTegic.value.DoubleValue
-4.089

@<SCITEGIC>MOL_PROPERTY
VdW12
SciTegic.value.DoubleValue
4.522

@<SCITEGIC>MOL_PROPERTY
Bond
SciTegic.value.DoubleValue
0.131

@<SCITEGIC>MOL_PROPERTY
Angle
SciTegic.value.DoubleValue
0.628

@<SCITEGIC>MOL_PROPERTY
Pdih
SciTegic.value.DoubleValue
1.047

@<SCITEGIC>MOL_PROPERTY
Idih
SciTegic.value.DoubleValue
0.000

@<SCITEGIC>MOL_PROPERTY
Tether
SciTegic.value.DoubleValue
0.000

@<TRIPOS>MOLECULE
guest-s11_confgen4.mol2 : confsearch ligand conformer 291
          20          19           1
SMALL
USER_CHARGES
 
@<TRIPOS>ATOM
       1    N1      19.006426   20.930507   24.529139 N.4        1 MOL1        -0.5919
       2    H1      19.183335   21.806007   24.026577 H          1 MOL1         0.3682
       3    H2      18.052462   20.636980   24.296486 H          1 MOL1         0.3682
       4    H3      19.012418   21.155724   25.529550 H          1 MOL1         0.3682
       5    C1      20.027063   19.864132   24.186027 C.3        1 MOL1         0.0252
       6    H4      19.796505   18.973554   24.776977 H          1 MOL1         0.0971
       7    H5      21.012120   20.230522   24.487547 H          1 MOL1         0.0971
       8    C2      20.044803   19.502318   22.690017 C.3        1 MOL1        -0.1369
       9    H6      19.047370   19.153091   22.394660 H          1 MOL1         0.0997
      10    H7      20.260954   20.402542   22.099518 H          1 MOL1         0.0997
      11    C3      21.100972   18.413759   22.385585 C.3        1 MOL1        -0.1329
      12    H8      20.858582   17.497159   22.941174 H          1 MOL1         0.0997
      13    H9      22.078884   18.750224   22.757367 H          1 MOL1         0.0997
      14    C4      21.233484   18.085693   20.878441 C.3        1 MOL1        -0.1305
      15    H10     21.499440   18.995258   20.321813 H          1 MOL1         0.0997
      16    H11     22.070632   17.386767   20.741969 H          1 MOL1         0.0997
      17    C5      19.957578   17.459033   20.271073 C.3        1 MOL1        -0.2320
      18    H12     19.119359   18.166705   20.274413 H          1 MOL1         0.1008
      19    H13     20.133954   17.162580   19.228979 H          1 MOL1         0.1008
      20    H14     19.654001   16.562861   20.827607 H          1 MOL1         0.1008
@<TRIPOS>BOND
    1     1     2    1
    2     1     3    1
    3     1     4    1
    4     1     5    1
    5     5     6    1
    6     5     7    1
    7     5     8    1
    8     8     9    1
    9     8    10    1
   10     8    11    1
   11    11    12    1
   12    11    13    1
   13    11    14    1
   14    14    15    1
   15    14    16    1
   16    14    17    1
   17    17    18    1
   18    17    19    1
   19    17    20    1
@<TRIPOS>SUBSTRUCTURE
       1 MOL1            1 RESIDUE      1      MOL     
@<SCITEGIC>MOL_PROPERTY
VConf Rank
SciTegic.value.IntegerValue
291

@<SCITEGIC>MOL_PROPERTY
Conf_Id
SciTegic.value.IntegerValue
41

@<SCITEGIC>MOL_PROPERTY
Delta U+W
SciTegic.value.DoubleValue
0.515

@<SCITEGIC>MOL_PROPERTY
U+W
SciTegic.value.DoubleValue
-11.263

@<SCITEGIC>MOL_PROPERTY
Grad RMS
SciTegic.value.DoubleValue
0.000000

@<SCITEGIC>MOL_PROPERTY
U
SciTegic.value.DoubleValue
46.486

@<SCITEGIC>MOL_PROPERTY
W
SciTegic.value.DoubleValue
-57.749

@<SCITEGIC>MOL_PROPERTY
W(PB)
SciTegic.value.DoubleValue
-59.685

@<SCITEGIC>MOL_PROPERTY
W(SA)
SciTegic.value.DoubleValue
1.936

@<SCITEGIC>MOL_PROPERTY
Valence
SciTegic.value.DoubleValue
1.806

@<SCITEGIC>MOL_PROPERTY
Coulomb
SciTegic.value.DoubleValue
44.248

@<SCITEGIC>MOL_PROPERTY
VdW
SciTegic.value.DoubleValue
0.433

@<SCITEGIC>MOL_PROPERTY
VdW6
SciTegic.value.DoubleValue
-4.089

@<SCITEGIC>MOL_PROPERTY
VdW12
SciTegic.value.DoubleValue
4.522

@<SCITEGIC>MOL_PROPERTY
Bond
SciTegic.value.DoubleValue
0.131

@<SCITEGIC>MOL_PROPERTY
Angle
SciTegic.value.DoubleValue
0.628

@<SCITEGIC>MOL_PROPERTY
Pdih
SciTegic.value.DoubleValue
1.047

@<SCITEGIC>MOL_PROPERTY
Idih
SciTegic.value.DoubleValue
0.000

@<SCITEGIC>MOL_PROPERTY
Tether
SciTegic.value.DoubleValue
0.000

@<TRIPOS>MOLECULE
guest-s11_confgen4.mol2 : confsearch ligand conformer 292
          20          19           1
SMALL
USER_CHARGES
 
@<TRIPOS>ATOM
       1    N1      17.779115   18.096445   23.455345 N.4        1 MOL1        -0.5919
       2    H1      16.997076   18.109196   24.118485 H          1 MOL1         0.3682
       3    H2      17.469885   18.602084   22.620093 H          1 MOL1         0.3682
       4    H3      17.921923   17.119094   23.182246 H          1 MOL1         0.3682
       5    C1      19.033269   18.705115   24.052658 C.3        1 MOL1         0.0252
       6    H4      19.274252   18.142565   24.958785 H          1 MOL1         0.0971
       7    H5      18.806823   19.734811   24.342294 H          1 MOL1         0.0971
       8    C2      20.248495   18.688294   23.104600 C.3        1 MOL1        -0.1369
       9    H6      21.122345   19.037735   23.668414 H          1 MOL1         0.0997
      10    H7      20.462626   17.654813   22.801692 H          1 MOL1         0.0997
      11    C3      20.043165   19.577794   21.852503 C.3        1 MOL1        -0.1329
      12    H8      19.852042   20.614472   22.162726 H          1 MOL1         0.0997
      13    H9      19.146526   19.246801   21.312050 H          1 MOL1         0.0997
      14    C4      21.239127   19.544635   20.869876 C.3        1 MOL1        -0.1305
      15    H10     21.425739   18.511162   20.545876 H          1 MOL1         0.0997
      16    H11     20.966600   20.105215   19.964658 H          1 MOL1         0.0997
      17    C5      22.535968   20.148270   21.456042 C.3        1 MOL1        -0.2320
      18    H12     22.920185   19.548194   22.290042 H          1 MOL1         0.1008
      19    H13     23.321356   20.187577   20.690164 H          1 MOL1         0.1008
      20    H14     22.368016   21.171477   21.816380 H          1 MOL1         0.1008
@<TRIPOS>BOND
    1     1     2    1
    2     1     3    1
    3     1     4    1
    4     1     5    1
    5     5     6    1
    6     5     7    1
    7     5     8    1
    8     8     9    1
    9     8    10    1
   10     8    11    1
   11    11    12    1
   12    11    13    1
   13    11    14    1
   14    14    15    1
   15    14    16    1
   16    14    17    1
   17    17    18    1
   18    17    19    1
   19    17    20    1
@<TRIPOS>SUBSTRUCTURE
       1 MOL1            1 RESIDUE      1      MOL     
@<SCITEGIC>MOL_PROPERTY
VConf Rank
SciTegic.value.IntegerValue
292

@<SCITEGIC>MOL_PROPERTY
Conf_Id
SciTegic.value.IntegerValue
33

@<SCITEGIC>MOL_PROPERTY
Delta U+W
SciTegic.value.DoubleValue
0.703

@<SCITEGIC>MOL_PROPERTY
U+W
SciTegic.value.DoubleValue
-11.075

@<SCITEGIC>MOL_PROPERTY
Grad RMS
SciTegic.value.DoubleValue
0.000000

@<SCITEGIC>MOL_PROPERTY
U
SciTegic.value.DoubleValue
47.080

@<SCITEGIC>MOL_PROPERTY
W
SciTegic.value.DoubleValue
-58.154

@<SCITEGIC>MOL_PROPERTY
W(PB)
SciTegic.value.DoubleValue
-60.053

@<SCITEGIC>MOL_PROPERTY
W(SA)
SciTegic.value.DoubleValue
1.899

@<SCITEGIC>MOL_PROPERTY
Valence
SciTegic.value.DoubleValue
1.943

@<SCITEGIC>MOL_PROPERTY
Coulomb
SciTegic.value.DoubleValue
44.572

@<SCITEGIC>MOL_PROPERTY
VdW
SciTegic.value.DoubleValue
0.565

@<SCITEGIC>MOL_PROPERTY
VdW6
SciTegic.value.DoubleValue
-4.575

@<SCITEGIC>MOL_PROPERTY
VdW12
SciTegic.value.DoubleValue
5.139

@<SCITEGIC>MOL_PROPERTY
Bond
SciTegic.value.DoubleValue
0.158

@<SCITEGIC>MOL_PROPERTY
Angle
SciTegic.value.DoubleValue
0.700

@<SCITEGIC>MOL_PROPERTY
Pdih
SciTegic.value.DoubleValue
1.085

@<SCITEGIC>MOL_PROPERTY
Idih
SciTegic.value.DoubleValue
0.000

@<SCITEGIC>MOL_PROPERTY
Tether
SciTegic.value.DoubleValue
0.000

@<TRIPOS>MOLECULE
guest-s11_confgen4.mol2 : confsearch ligand conformer 293
          20          19           1
SMALL
USER_CHARGES
 
@<TRIPOS>ATOM
       1    N1      21.749703   17.651974   24.170690 N.4        1 MOL1        -0.5919
       2    H1      22.001081   17.314840   25.105918 H          1 MOL1         0.3682
       3    H2      22.044719   16.930817   23.505039 H          1 MOL1         0.3682
       4    H3      22.320793   18.482697   23.989874 H          1 MOL1         0.3682
       5    C1      20.266843   17.950338   24.059934 C.3        1 MOL1         0.0252
       6    H4      20.015195   18.706198   24.808793 H          1 MOL1         0.0971
       7    H5      19.725842   17.033080   24.308039 H          1 MOL1         0.0971
       8    C2      19.830086   18.437412   22.664275 C.3        1 MOL1        -0.1369
       9    H6      20.099755   17.684082   21.912303 H          1 MOL1         0.0997
      10    H7      18.735365   18.509246   22.658267 H          1 MOL1         0.0997
      11    C3      20.446961   19.808361   22.288666 C.3        1 MOL1        -0.1329
      12    H8      21.542021   19.740561   22.331745 H          1 MOL1         0.0997
      13    H9      20.154370   20.561870   23.033033 H          1 MOL1         0.0997
      14    C4      20.048565   20.297019   20.874640 C.3        1 MOL1        -0.1305
      15    H10     20.614635   21.210813   20.645541 H          1 MOL1         0.0997
      16    H11     20.351434   19.552723   20.124866 H          1 MOL1         0.0997
      17    C5      18.539351   20.598200   20.728595 C.3        1 MOL1        -0.2320
      18    H12     18.204399   21.316783   21.487838 H          1 MOL1         0.1008
      19    H13     18.327959   21.030455   19.741975 H          1 MOL1         0.1008
      20    H14     17.934376   19.688268   20.825023 H          1 MOL1         0.1008
@<TRIPOS>BOND
    1     1     2    1
    2     1     3    1
    3     1     4    1
    4     1     5    1
    5     5     6    1
    6     5     7    1
    7     5     8    1
    8     8     9    1
    9     8    10    1
   10     8    11    1
   11    11    12    1
   12    11    13    1
   13    11    14    1
   14    14    15    1
   15    14    16    1
   16    14    17    1
   17    17    18    1
   18    17    19    1
   19    17    20    1
@<TRIPOS>SUBSTRUCTURE
       1 MOL1            1 RESIDUE      1      MOL     
@<SCITEGIC>MOL_PROPERTY
VConf Rank
SciTegic.value.IntegerValue
293

@<SCITEGIC>MOL_PROPERTY
Conf_Id
SciTegic.value.IntegerValue
24

@<SCITEGIC>MOL_PROPERTY
Delta U+W
SciTegic.value.DoubleValue
0.847

@<SCITEGIC>MOL_PROPERTY
U+W
SciTegic.value.DoubleValue
-10.931

@<SCITEGIC>MOL_PROPERTY
Grad RMS
SciTegic.value.DoubleValue
0.000000

@<SCITEGIC>MOL_PROPERTY
U
SciTegic.value.DoubleValue
47.080

@<SCITEGIC>MOL_PROPERTY
W
SciTegic.value.DoubleValue
-58.011

@<SCITEGIC>MOL_PROPERTY
W(PB)
SciTegic.value.DoubleValue
-59.914

@<SCITEGIC>MOL_PROPERTY
W(SA)
SciTegic.value.DoubleValue
1.903

@<SCITEGIC>MOL_PROPERTY
Valence
SciTegic.value.DoubleValue
1.943

@<SCITEGIC>MOL_PROPERTY
Coulomb
SciTegic.value.DoubleValue
44.572

@<SCITEGIC>MOL_PROPERTY
VdW
SciTegic.value.DoubleValue
0.565

@<SCITEGIC>MOL_PROPERTY
VdW6
SciTegic.value.DoubleValue
-4.575

@<SCITEGIC>MOL_PROPERTY
VdW12
SciTegic.value.DoubleValue
5.140

@<SCITEGIC>MOL_PROPERTY
Bond
SciTegic.value.DoubleValue
0.158

@<SCITEGIC>MOL_PROPERTY
Angle
SciTegic.value.DoubleValue
0.700

@<SCITEGIC>MOL_PROPERTY
Pdih
SciTegic.value.DoubleValue
1.085

@<SCITEGIC>MOL_PROPERTY
Idih
SciTegic.value.DoubleValue
0.000

@<SCITEGIC>MOL_PROPERTY
Tether
SciTegic.value.DoubleValue
0.000

@<TRIPOS>MOLECULE
guest-s11_confgen4.mol2 : confsearch ligand conformer 294
          20          19           1
SMALL
USER_CHARGES
 
@<TRIPOS>ATOM
       1    N1      21.874336   17.411472   23.622316 N.4        1 MOL1        -0.5919
       2    H1      22.888544   17.358818   23.480546 H          1 MOL1         0.3682
       3    H2      21.724689   17.812802   24.553317 H          1 MOL1         0.3682
       4    H3      21.528066   16.447314   23.650690 H          1 MOL1         0.3682
       5    C1      21.195718   18.225056   22.538856 C.3        1 MOL1         0.0252
       6    H4      21.420233   17.759176   21.575566 H          1 MOL1         0.0971
       7    H5      21.633679   19.226609   22.546981 H          1 MOL1         0.0971
       8    C2      19.669649   18.324502   22.722835 C.3        1 MOL1        -0.1369
       9    H6      19.245220   17.312281   22.754918 H          1 MOL1         0.0997
      10    H7      19.443092   18.783729   23.693524 H          1 MOL1         0.0997
      11    C3      18.979401   19.119613   21.586458 C.3        1 MOL1        -0.1329
      12    H8      17.896872   19.141049   21.773366 H          1 MOL1         0.0997
      13    H9      19.111696   18.576779   20.640244 H          1 MOL1         0.0997
      14    C4      19.491124   20.571552   21.404148 C.3        1 MOL1        -0.1305
      15    H10     20.550081   20.566980   21.111972 H          1 MOL1         0.0997
      16    H11     18.949539   21.031007   20.565418 H          1 MOL1         0.0997
      17    C5      19.302349   21.451961   22.660432 C.3        1 MOL1        -0.2320
      18    H12     19.592811   22.489395   22.450036 H          1 MOL1         0.1008
      19    H13     18.253903   21.456507   22.985572 H          1 MOL1         0.1008
      20    H14     19.920282   21.099690   23.495716 H          1 MOL1         0.1008
@<TRIPOS>BOND
    1     1     2    1
    2     1     3    1
    3     1     4    1
    4     1     5    1
    5     5     6    1
    6     5     7    1
    7     5     8    1
    8     8     9    1
    9     8    10    1
   10     8    11    1
   11    11    12    1
   12    11    13    1
   13    11    14    1
   14    14    15    1
   15    14    16    1
   16    14    17    1
   17    17    18    1
   18    17    19    1
   19    17    20    1
@<TRIPOS>SUBSTRUCTURE
       1 MOL1            1 RESIDUE      1      MOL     
@<SCITEGIC>MOL_PROPERTY
VConf Rank
SciTegic.value.IntegerValue
294

@<SCITEGIC>MOL_PROPERTY
Conf_Id
SciTegic.value.IntegerValue
64

@<SCITEGIC>MOL_PROPERTY
Delta U+W
SciTegic.value.DoubleValue
0.707

@<SCITEGIC>MOL_PROPERTY
U+W
SciTegic.value.DoubleValue
-11.070

@<SCITEGIC>MOL_PROPERTY
Grad RMS
SciTegic.value.DoubleValue
0.000000

@<SCITEGIC>MOL_PROPERTY
U
SciTegic.value.DoubleValue
47.077

@<SCITEGIC>MOL_PROPERTY
W
SciTegic.value.DoubleValue
-58.148

@<SCITEGIC>MOL_PROPERTY
W(PB)
SciTegic.value.DoubleValue
-60.054

@<SCITEGIC>MOL_PROPERTY
W(SA)
SciTegic.value.DoubleValue
1.906

@<SCITEGIC>MOL_PROPERTY
Valence
SciTegic.value.DoubleValue
2.039

@<SCITEGIC>MOL_PROPERTY
Coulomb
SciTegic.value.DoubleValue
44.655

@<SCITEGIC>MOL_PROPERTY
VdW
SciTegic.value.DoubleValue
0.383

@<SCITEGIC>MOL_PROPERTY
VdW6
SciTegic.value.DoubleValue
-4.912

@<SCITEGIC>MOL_PROPERTY
VdW12
SciTegic.value.DoubleValue
5.295

@<SCITEGIC>MOL_PROPERTY
Bond
SciTegic.value.DoubleValue
0.159

@<SCITEGIC>MOL_PROPERTY
Angle
SciTegic.value.DoubleValue
0.856

@<SCITEGIC>MOL_PROPERTY
Pdih
SciTegic.value.DoubleValue
1.024

@<SCITEGIC>MOL_PROPERTY
Idih
SciTegic.value.DoubleValue
0.000

@<SCITEGIC>MOL_PROPERTY
Tether
SciTegic.value.DoubleValue
0.000

@<TRIPOS>MOLECULE
guest-s11_confgen4.mol2 : confsearch ligand conformer 295
          20          19           1
SMALL
USER_CHARGES
 
@<TRIPOS>ATOM
       1    N1      21.627478   16.887503   21.612239 N.4        1 MOL1        -0.5919
       2    H1      22.273890   16.497483   22.305307 H          1 MOL1         0.3682
       3    H2      20.787478   16.300508   21.619942 H          1 MOL1         0.3682
       4    H3      22.067330   16.765432   20.694025 H          1 MOL1         0.3682
       5    C1      21.305386   18.341258   21.893629 C.3        1 MOL1         0.0252
       6    H4      20.639966   18.696952   21.102628 H          1 MOL1         0.0971
       7    H5      22.237440   18.910360   21.840941 H          1 MOL1         0.0971
       8    C2      20.642312   18.559449   23.266709 C.3        1 MOL1        -0.1369
       9    H6      19.711217   17.981324   23.324055 H          1 MOL1         0.0997
      10    H7      21.300324   18.161279   24.050444 H          1 MOL1         0.0997
      11    C3      20.357943   20.052904   23.564573 C.3        1 MOL1        -0.1329
      12    H8      21.313333   20.592164   23.627199 H          1 MOL1         0.0997
      13    H9      19.898341   20.136553   24.559073 H          1 MOL1         0.0997
      14    C4      19.451831   20.762708   22.526130 C.3        1 MOL1        -0.1305
      15    H10     19.333573   21.813713   22.824937 H          1 MOL1         0.0997
      16    H11     19.943584   20.782744   21.544013 H          1 MOL1         0.0997
      17    C5      18.051298   20.122519   22.393191 C.3        1 MOL1        -0.2320
      18    H12     17.546264   20.071801   23.366508 H          1 MOL1         0.1008
      19    H13     17.420212   20.715093   21.718289 H          1 MOL1         0.1008
      20    H14     18.110017   19.106886   21.982488 H          1 MOL1         0.1008
@<TRIPOS>BOND
    1     1     2    1
    2     1     3    1
    3     1     4    1
    4     1     5    1
    5     5     6    1
    6     5     7    1
    7     5     8    1
    8     8     9    1
    9     8    10    1
   10     8    11    1
   11    11    12    1
   12    11    13    1
   13    11    14    1
   14    14    15    1
   15    14    16    1
   16    14    17    1
   17    17    18    1
   18    17    19    1
   19    17    20    1
@<TRIPOS>SUBSTRUCTURE
       1 MOL1            1 RESIDUE      1      MOL     
@<SCITEGIC>MOL_PROPERTY
VConf Rank
SciTegic.value.IntegerValue
295

@<SCITEGIC>MOL_PROPERTY
Conf_Id
SciTegic.value.IntegerValue
22

@<SCITEGIC>MOL_PROPERTY
Delta U+W
SciTegic.value.DoubleValue
0.731

@<SCITEGIC>MOL_PROPERTY
U+W
SciTegic.value.DoubleValue
-11.047

@<SCITEGIC>MOL_PROPERTY
Grad RMS
SciTegic.value.DoubleValue
0.000000

@<SCITEGIC>MOL_PROPERTY
U
SciTegic.value.DoubleValue
47.078

@<SCITEGIC>MOL_PROPERTY
W
SciTegic.value.DoubleValue
-58.125

@<SCITEGIC>MOL_PROPERTY
W(PB)
SciTegic.value.DoubleValue
-60.031

@<SCITEGIC>MOL_PROPERTY
W(SA)
SciTegic.value.DoubleValue
1.906

@<SCITEGIC>MOL_PROPERTY
Valence
SciTegic.value.DoubleValue
2.039

@<SCITEGIC>MOL_PROPERTY
Coulomb
SciTegic.value.DoubleValue
44.655

@<SCITEGIC>MOL_PROPERTY
VdW
SciTegic.value.DoubleValue
0.383

@<SCITEGIC>MOL_PROPERTY
VdW6
SciTegic.value.DoubleValue
-4.913

@<SCITEGIC>MOL_PROPERTY
VdW12
SciTegic.value.DoubleValue
5.296

@<SCITEGIC>MOL_PROPERTY
Bond
SciTegic.value.DoubleValue
0.159

@<SCITEGIC>MOL_PROPERTY
Angle
SciTegic.value.DoubleValue
0.856

@<SCITEGIC>MOL_PROPERTY
Pdih
SciTegic.value.DoubleValue
1.024

@<SCITEGIC>MOL_PROPERTY
Idih
SciTegic.value.DoubleValue
0.000

@<SCITEGIC>MOL_PROPERTY
Tether
SciTegic.value.DoubleValue
0.000

@<TRIPOS>MOLECULE
guest-s11_confgen4.mol2 : confsearch ligand conformer 296
          20          19           1
SMALL
USER_CHARGES
 
@<TRIPOS>ATOM
       1    N1      21.845154   20.896693   21.122237 N.4        1 MOL1        -0.5919
       2    H1      21.375260   21.800099   21.237957 H          1 MOL1         0.3682
       3    H2      22.770583   20.981139   21.554395 H          1 MOL1         0.3682
       4    H3      21.997679   20.767464   20.116489 H          1 MOL1         0.3682
       5    C1      21.041961   19.759647   21.721083 C.3        1 MOL1         0.0252
       6    H4      21.585312   18.828629   21.538406 H          1 MOL1         0.0971
       7    H5      20.086846   19.714293   21.192912 H          1 MOL1         0.0971
       8    C2      20.790725   19.926785   23.230261 C.3        1 MOL1        -0.1369
       9    H6      21.753446   20.091188   23.732320 H          1 MOL1         0.0997
      10    H7      20.192566   20.831244   23.403306 H          1 MOL1         0.0997
      11    C3      20.095214   18.709050   23.890033 C.3        1 MOL1        -0.1329
      12    H8      20.051427   18.900263   24.971269 H          1 MOL1         0.0997
      13    H9      20.715044   17.809360   23.772907 H          1 MOL1         0.0997
      14    C4      18.652018   18.433211   23.393757 C.3        1 MOL1        -0.1305
      15    H10     18.094912   17.947005   24.206985 H          1 MOL1         0.0997
      16    H11     18.129884   19.379474   23.194503 H          1 MOL1         0.0997
      17    C5      18.580817   17.509952   22.154661 C.3        1 MOL1        -0.2320
      18    H12     19.037206   17.965563   21.269787 H          1 MOL1         0.1008
      19    H13     19.087079   16.554849   22.345665 H          1 MOL1         0.1008
      20    H14     17.535473   17.286705   21.904861 H          1 MOL1         0.1008
@<TRIPOS>BOND
    1     1     2    1
    2     1     3    1
    3     1     4    1
    4     1     5    1
    5     5     6    1
    6     5     7    1
    7     5     8    1
    8     8     9    1
    9     8    10    1
   10     8    11    1
   11    11    12    1
   12    11    13    1
   13    11    14    1
   14    14    15    1
   15    14    16    1
   16    14    17    1
   17    17    18    1
   18    17    19    1
   19    17    20    1
@<TRIPOS>SUBSTRUCTURE
       1 MOL1            1 RESIDUE      1      MOL     
@<SCITEGIC>MOL_PROPERTY
VConf Rank
SciTegic.value.IntegerValue
296

@<SCITEGIC>MOL_PROPERTY
Conf_Id
SciTegic.value.IntegerValue
61

@<SCITEGIC>MOL_PROPERTY
Delta U+W
SciTegic.value.DoubleValue
2.669

@<SCITEGIC>MOL_PROPERTY
U+W
SciTegic.value.DoubleValue
-9.108

@<SCITEGIC>MOL_PROPERTY
Grad RMS
SciTegic.value.DoubleValue
0.000000

@<SCITEGIC>MOL_PROPERTY
U
SciTegic.value.DoubleValue
48.916

@<SCITEGIC>MOL_PROPERTY
W
SciTegic.value.DoubleValue
-58.025

@<SCITEGIC>MOL_PROPERTY
W(PB)
SciTegic.value.DoubleValue
-59.935

@<SCITEGIC>MOL_PROPERTY
W(SA)
SciTegic.value.DoubleValue
1.911

@<SCITEGIC>MOL_PROPERTY
Valence
SciTegic.value.DoubleValue
3.785

@<SCITEGIC>MOL_PROPERTY
Coulomb
SciTegic.value.DoubleValue
44.716

@<SCITEGIC>MOL_PROPERTY
VdW
SciTegic.value.DoubleValue
0.415

@<SCITEGIC>MOL_PROPERTY
VdW6
SciTegic.value.DoubleValue
-4.836

@<SCITEGIC>MOL_PROPERTY
VdW12
SciTegic.value.DoubleValue
5.251

@<SCITEGIC>MOL_PROPERTY
Bond
SciTegic.value.DoubleValue
0.175

@<SCITEGIC>MOL_PROPERTY
Angle
SciTegic.value.DoubleValue
1.195

@<SCITEGIC>MOL_PROPERTY
Pdih
SciTegic.value.DoubleValue
2.415

@<SCITEGIC>MOL_PROPERTY
Idih
SciTegic.value.DoubleValue
0.000

@<SCITEGIC>MOL_PROPERTY
Tether
SciTegic.value.DoubleValue
0.000

@<TRIPOS>MOLECULE
guest-s11_confgen4.mol2 : confsearch ligand conformer 297
          20          19           1
SMALL
USER_CHARGES
 
@<TRIPOS>ATOM
       1    N1      22.143793   19.589381   23.394640 N.4        1 MOL1        -0.5919
       2    H1      23.113078   19.871263   23.213893 H          1 MOL1         0.3682
       3    H2      22.065128   19.428302   24.403683 H          1 MOL1         0.3682
       4    H3      22.002037   18.687361   22.932807 H          1 MOL1         0.3682
       5    C1      21.155765   20.634610   22.913112 C.3        1 MOL1         0.0252
       6    H4      21.323087   20.807502   21.846600 H          1 MOL1         0.0971
       7    H5      21.387842   21.560802   23.445906 H          1 MOL1         0.0971
       8    C2      19.675964   20.272674   23.159415 C.3        1 MOL1        -0.1369
       9    H6      19.556075   19.839111   24.161145 H          1 MOL1         0.0997
      10    H7      19.100466   21.207892   23.165817 H          1 MOL1         0.0997
      11    C3      19.053478   19.340000   22.088715 C.3        1 MOL1        -0.1329
      12    H8      19.129686   19.814819   21.100684 H          1 MOL1         0.0997
      13    H9      17.979247   19.246300   22.300205 H          1 MOL1         0.0997
      14    C4      19.675943   17.925275   22.030389 C.3        1 MOL1        -0.1305
      15    H10     20.711737   17.984549   21.673362 H          1 MOL1         0.0997
      16    H11     19.700993   17.486048   23.037561 H          1 MOL1         0.0997
      17    C5      18.883866   16.994226   21.087639 C.3        1 MOL1        -0.2320
      18    H12     19.343646   15.998116   21.049969 H          1 MOL1         0.1008
      19    H13     17.847752   16.873130   21.429732 H          1 MOL1         0.1008
      20    H14     18.861714   17.393671   20.065277 H          1 MOL1         0.1008
@<TRIPOS>BOND
    1     1     2    1
    2     1     3    1
    3     1     4    1
    4     1     5    1
    5     5     6    1
    6     5     7    1
    7     5     8    1
    8     8     9    1
    9     8    10    1
   10     8    11    1
   11    11    12    1
   12    11    13    1
   13    11    14    1
   14    14    15    1
   15    14    16    1
   16    14    17    1
   17    17    18    1
   18    17    19    1
   19    17    20    1
@<TRIPOS>SUBSTRUCTURE
       1 MOL1            1 RESIDUE      1      MOL     
@<SCITEGIC>MOL_PROPERTY
VConf Rank
SciTegic.value.IntegerValue
297

@<SCITEGIC>MOL_PROPERTY
Conf_Id
SciTegic.value.IntegerValue
69

@<SCITEGIC>MOL_PROPERTY
Delta U+W
SciTegic.value.DoubleValue
2.811

@<SCITEGIC>MOL_PROPERTY
U+W
SciTegic.value.DoubleValue
-8.967

@<SCITEGIC>MOL_PROPERTY
Grad RMS
SciTegic.value.DoubleValue
0.000000

@<SCITEGIC>MOL_PROPERTY
U
SciTegic.value.DoubleValue
49.216

@<SCITEGIC>MOL_PROPERTY
W
SciTegic.value.DoubleValue
-58.183

@<SCITEGIC>MOL_PROPERTY
W(PB)
SciTegic.value.DoubleValue
-60.064

@<SCITEGIC>MOL_PROPERTY
W(SA)
SciTegic.value.DoubleValue
1.881

@<SCITEGIC>MOL_PROPERTY
Valence
SciTegic.value.DoubleValue
2.929

@<SCITEGIC>MOL_PROPERTY
Coulomb
SciTegic.value.DoubleValue
46.006

@<SCITEGIC>MOL_PROPERTY
VdW
SciTegic.value.DoubleValue
0.281

@<SCITEGIC>MOL_PROPERTY
VdW6
SciTegic.value.DoubleValue
-4.909

@<SCITEGIC>MOL_PROPERTY
VdW12
SciTegic.value.DoubleValue
5.190

@<SCITEGIC>MOL_PROPERTY
Bond
SciTegic.value.DoubleValue
0.156

@<SCITEGIC>MOL_PROPERTY
Angle
SciTegic.value.DoubleValue
0.974

@<SCITEGIC>MOL_PROPERTY
Pdih
SciTegic.value.DoubleValue
1.799

@<SCITEGIC>MOL_PROPERTY
Idih
SciTegic.value.DoubleValue
0.000

@<SCITEGIC>MOL_PROPERTY
Tether
SciTegic.value.DoubleValue
0.000

@<TRIPOS>MOLECULE
guest-s11_confgen4.mol2 : confsearch ligand conformer 298
          20          19           1
SMALL
USER_CHARGES
 
@<TRIPOS>ATOM
       1    N1      21.613007   20.028557   23.899633 N.4        1 MOL1        -0.5919
       2    H1      20.956250   19.296369   24.181767 H          1 MOL1         0.3682
       3    H2      22.514912   19.574672   23.723965 H          1 MOL1         0.3682
       4    H3      21.743498   20.644380   24.709186 H          1 MOL1         0.3682
       5    C1      21.122232   20.793516   22.685324 C.3        1 MOL1         0.0252
       6    H4      21.873786   21.556565   22.465144 H          1 MOL1         0.0971
       7    H5      20.190685   21.302572   22.946901 H          1 MOL1         0.0971
       8    C2      20.908938   19.923576   21.428667 C.3        1 MOL1        -0.1369
       9    H6      20.961129   20.584100   20.552964 H          1 MOL1         0.0997
      10    H7      21.737910   19.211942   21.318217 H          1 MOL1         0.0997
      11    C3      19.548931   19.180625   21.382015 C.3        1 MOL1        -0.1329
      12    H8      19.459580   18.692875   20.401406 H          1 MOL1         0.0997
      13    H9      18.730351   19.911788   21.434869 H          1 MOL1         0.0997
      14    C4      19.361471   18.115779   22.488032 C.3        1 MOL1        -0.1305
      15    H10     20.230869   17.443804   22.511236 H          1 MOL1         0.0997
      16    H11     19.296496   18.600883   23.470022 H          1 MOL1         0.0997
      17    C5      18.080109   17.284251   22.265117 C.3        1 MOL1        -0.2320
      18    H12     18.118231   16.747303   21.308322 H          1 MOL1         0.1008
      19    H13     17.956737   16.540404   23.062940 H          1 MOL1         0.1008
      20    H14     17.188951   17.925421   22.261890 H          1 MOL1         0.1008
@<TRIPOS>BOND
    1     1     2    1
    2     1     3    1
    3     1     4    1
    4     1     5    1
    5     5     6    1
    6     5     7    1
    7     5     8    1
    8     8     9    1
    9     8    10    1
   10     8    11    1
   11    11    12    1
   12    11    13    1
   13    11    14    1
   14    14    15    1
   15    14    16    1
   16    14    17    1
   17    17    18    1
   18    17    19    1
   19    17    20    1
@<TRIPOS>SUBSTRUCTURE
       1 MOL1            1 RESIDUE      1      MOL     
@<SCITEGIC>MOL_PROPERTY
VConf Rank
SciTegic.value.IntegerValue
298

@<SCITEGIC>MOL_PROPERTY
Conf_Id
SciTegic.value.IntegerValue
26

@<SCITEGIC>MOL_PROPERTY
Delta U+W
SciTegic.value.DoubleValue
2.809

@<SCITEGIC>MOL_PROPERTY
U+W
SciTegic.value.DoubleValue
-8.969

@<SCITEGIC>MOL_PROPERTY
Grad RMS
SciTegic.value.DoubleValue
0.000000

@<SCITEGIC>MOL_PROPERTY
U
SciTegic.value.DoubleValue
49.216

@<SCITEGIC>MOL_PROPERTY
W
SciTegic.value.DoubleValue
-58.185

@<SCITEGIC>MOL_PROPERTY
W(PB)
SciTegic.value.DoubleValue
-60.088

@<SCITEGIC>MOL_PROPERTY
W(SA)
SciTegic.value.DoubleValue
1.903

@<SCITEGIC>MOL_PROPERTY
Valence
SciTegic.value.DoubleValue
2.929

@<SCITEGIC>MOL_PROPERTY
Coulomb
SciTegic.value.DoubleValue
46.006

@<SCITEGIC>MOL_PROPERTY
VdW
SciTegic.value.DoubleValue
0.281

@<SCITEGIC>MOL_PROPERTY
VdW6
SciTegic.value.DoubleValue
-4.909

@<SCITEGIC>MOL_PROPERTY
VdW12
SciTegic.value.DoubleValue
5.190

@<SCITEGIC>MOL_PROPERTY
Bond
SciTegic.value.DoubleValue
0.156

@<SCITEGIC>MOL_PROPERTY
Angle
SciTegic.value.DoubleValue
0.974

@<SCITEGIC>MOL_PROPERTY
Pdih
SciTegic.value.DoubleValue
1.799

@<SCITEGIC>MOL_PROPERTY
Idih
SciTegic.value.DoubleValue
0.000

@<SCITEGIC>MOL_PROPERTY
Tether
SciTegic.value.DoubleValue
0.000

@<TRIPOS>MOLECULE
guest-s11_confgen4.mol2 : confsearch ligand conformer 299
          20          19           1
SMALL
USER_CHARGES
 
@<TRIPOS>ATOM
       1    N1      18.432202   17.480567   22.137031 N.4        1 MOL1        -0.5919
       2    H1      19.329321   16.994395   22.225080 H          1 MOL1         0.3682
       3    H2      17.866291   17.221579   22.951099 H          1 MOL1         0.3682
       4    H3      17.961309   17.095611   21.311575 H          1 MOL1         0.3682
       5    C1      18.615626   18.982047   22.032567 C.3        1 MOL1         0.0252
       6    H4      17.626044   19.430730   21.910420 H          1 MOL1         0.0971
       7    H5      19.196444   19.191613   21.130534 H          1 MOL1         0.0971
       8    C2      19.313542   19.607713   23.257209 C.3        1 MOL1        -0.1369
       9    H6      19.335758   20.697952   23.133049 H          1 MOL1         0.0997
      10    H7      18.705079   19.420708   24.151883 H          1 MOL1         0.0997
      11    C3      20.752855   19.081800   23.499670 C.3        1 MOL1        -0.1329
      12    H8      20.709390   18.022022   23.784604 H          1 MOL1         0.0997
      13    H9      21.178937   19.604940   24.366836 H          1 MOL1         0.0997
      14    C4      21.714185   19.238425   22.293708 C.3        1 MOL1        -0.1305
      15    H10     22.691407   18.816392   22.567161 H          1 MOL1         0.0997
      16    H11     21.356597   18.643551   21.442384 H          1 MOL1         0.0997
      17    C5      21.911863   20.706910   21.854028 C.3        1 MOL1        -0.2320
      18    H12     22.253814   21.327439   22.692465 H          1 MOL1         0.1008
      19    H13     22.665945   20.772100   21.059047 H          1 MOL1         0.1008
      20    H14     20.982263   21.138899   21.463092 H          1 MOL1         0.1008
@<TRIPOS>BOND
    1     1     2    1
    2     1     3    1
    3     1     4    1
    4     1     5    1
    5     5     6    1
    6     5     7    1
    7     5     8    1
    8     8     9    1
    9     8    10    1
   10     8    11    1
   11    11    12    1
   12    11    13    1
   13    11    14    1
   14    14    15    1
   15    14    16    1
   16    14    17    1
   17    17    18    1
   18    17    19    1
   19    17    20    1
@<TRIPOS>SUBSTRUCTURE
       1 MOL1            1 RESIDUE      1      MOL     
@<SCITEGIC>MOL_PROPERTY
VConf Rank
SciTegic.value.IntegerValue
299

@<SCITEGIC>MOL_PROPERTY
Conf_Id
SciTegic.value.IntegerValue
2

@<SCITEGIC>MOL_PROPERTY
Delta U+W
SciTegic.value.DoubleValue
0.994

@<SCITEGIC>MOL_PROPERTY
U+W
SciTegic.value.DoubleValue
-10.784

@<SCITEGIC>MOL_PROPERTY
Grad RMS
SciTegic.value.DoubleValue
0.000000

@<SCITEGIC>MOL_PROPERTY
U
SciTegic.value.DoubleValue
47.562

@<SCITEGIC>MOL_PROPERTY
W
SciTegic.value.DoubleValue
-58.346

@<SCITEGIC>MOL_PROPERTY
W(PB)
SciTegic.value.DoubleValue
-60.221

@<SCITEGIC>MOL_PROPERTY
W(SA)
SciTegic.value.DoubleValue
1.875

@<SCITEGIC>MOL_PROPERTY
Valence
SciTegic.value.DoubleValue
2.149

@<SCITEGIC>MOL_PROPERTY
Coulomb
SciTegic.value.DoubleValue
45.034

@<SCITEGIC>MOL_PROPERTY
VdW
SciTegic.value.DoubleValue
0.378

@<SCITEGIC>MOL_PROPERTY
VdW6
SciTegic.value.DoubleValue
-5.599

@<SCITEGIC>MOL_PROPERTY
VdW12
SciTegic.value.DoubleValue
5.977

@<SCITEGIC>MOL_PROPERTY
Bond
SciTegic.value.DoubleValue
0.185

@<SCITEGIC>MOL_PROPERTY
Angle
SciTegic.value.DoubleValue
0.935

@<SCITEGIC>MOL_PROPERTY
Pdih
SciTegic.value.DoubleValue
1.028

@<SCITEGIC>MOL_PROPERTY
Idih
SciTegic.value.DoubleValue
0.000

@<SCITEGIC>MOL_PROPERTY
Tether
SciTegic.value.DoubleValue
0.000

@<TRIPOS>MOLECULE
guest-s11_confgen4.mol2 : confsearch ligand conformer 300
          20          19           1
SMALL
USER_CHARGES
 
@<TRIPOS>ATOM
       1    N1      22.419790   18.846941   21.598181 N.4        1 MOL1        -0.5919
       2    H1      22.643179   19.346422   20.731778 H          1 MOL1         0.3682
       3    H2      22.460532   19.529893   22.360321 H          1 MOL1         0.3682
       4    H3      23.175919   18.173018   21.757571 H          1 MOL1         0.3682
       5    C1      21.065866   18.168354   21.524675 C.3        1 MOL1         0.0252
       6    H4      20.904387   17.629462   22.461934 H          1 MOL1         0.0971
       7    H5      21.104361   17.435212   20.714411 H          1 MOL1         0.0971
       8    C2      19.896746   19.143231   21.277571 C.3        1 MOL1        -0.1369
       9    H6      20.051632   19.654052   20.318034 H          1 MOL1         0.0997
      10    H7      18.971592   18.564151   21.162290 H          1 MOL1         0.0997
      11    C3      19.712020   20.202604   22.395871 C.3        1 MOL1        -0.1329
      12    H8      18.841355   20.826578   22.151334 H          1 MOL1         0.0997
      13    H9      20.573779   20.883468   22.397455 H          1 MOL1         0.0997
      14    C4      19.530415   19.619313   23.820592 C.3        1 MOL1        -0.1305
      15    H10     20.431898   19.070350   24.124672 H          1 MOL1         0.0997
      16    H11     19.430885   20.452375   24.530487 H          1 MOL1         0.0997
      17    C5      18.294148   18.701364   23.954193 C.3        1 MOL1        -0.2320
      18    H12     18.399031   17.793615   23.347073 H          1 MOL1         0.1008
      19    H13     18.159516   18.387033   24.997245 H          1 MOL1         0.1008
      20    H14     17.380161   19.221839   23.640037 H          1 MOL1         0.1008
@<TRIPOS>BOND
    1     1     2    1
    2     1     3    1
    3     1     4    1
    4     1     5    1
    5     5     6    1
    6     5     7    1
    7     5     8    1
    8     8     9    1
    9     8    10    1
   10     8    11    1
   11    11    12    1
   12    11    13    1
   13    11    14    1
   14    14    15    1
   15    14    16    1
   16    14    17    1
   17    17    18    1
   18    17    19    1
   19    17    20    1
@<TRIPOS>SUBSTRUCTURE
       1 MOL1            1 RESIDUE      1      MOL     
@<SCITEGIC>MOL_PROPERTY
VConf Rank
SciTegic.value.IntegerValue
300

@<SCITEGIC>MOL_PROPERTY
Conf_Id
SciTegic.value.IntegerValue
1

@<SCITEGIC>MOL_PROPERTY
Delta U+W
SciTegic.value.DoubleValue
1.032

@<SCITEGIC>MOL_PROPERTY
U+W
SciTegic.value.DoubleValue
-10.746

@<SCITEGIC>MOL_PROPERTY
Grad RMS
SciTegic.value.DoubleValue
0.000000

@<SCITEGIC>MOL_PROPERTY
U
SciTegic.value.DoubleValue
47.562

@<SCITEGIC>MOL_PROPERTY
W
SciTegic.value.DoubleValue
-58.308

@<SCITEGIC>MOL_PROPERTY
W(PB)
SciTegic.value.DoubleValue
-60.184

@<SCITEGIC>MOL_PROPERTY
W(SA)
SciTegic.value.DoubleValue
1.877

@<SCITEGIC>MOL_PROPERTY
Valence
SciTegic.value.DoubleValue
2.149

@<SCITEGIC>MOL_PROPERTY
Coulomb
SciTegic.value.DoubleValue
45.035

@<SCITEGIC>MOL_PROPERTY
VdW
SciTegic.value.DoubleValue
0.378

@<SCITEGIC>MOL_PROPERTY
VdW6
SciTegic.value.DoubleValue
-5.599

@<SCITEGIC>MOL_PROPERTY
VdW12
SciTegic.value.DoubleValue
5.978

@<SCITEGIC>MOL_PROPERTY
Bond
SciTegic.value.DoubleValue
0.185

@<SCITEGIC>MOL_PROPERTY
Angle
SciTegic.value.DoubleValue
0.935

@<SCITEGIC>MOL_PROPERTY
Pdih
SciTegic.value.DoubleValue
1.028

@<SCITEGIC>MOL_PROPERTY
Idih
SciTegic.value.DoubleValue
0.000

@<SCITEGIC>MOL_PROPERTY
Tether
SciTegic.value.DoubleValue
0.000

@<TRIPOS>MOLECULE
guest-s11_confgen4.mol2 : confsearch ligand conformer 301
          20          19           1
SMALL
USER_CHARGES
 
@<TRIPOS>ATOM
       1    N1      19.279018   20.763920   23.836518 N.4        1 MOL1        -0.5919
       2    H1      18.611784   20.481749   24.561272 H          1 MOL1         0.3682
       3    H2      20.217444   20.564372   24.194599 H          1 MOL1         0.3682
       4    H3      19.204576   21.782290   23.743108 H          1 MOL1         0.3682
       5    C1      19.015733   20.057147   22.520877 C.3        1 MOL1         0.0252
       6    H4      19.738223   20.425513   21.790921 H          1 MOL1         0.0971
       7    H5      18.017969   20.351328   22.184055 H          1 MOL1         0.0971
       8    C2      19.084280   18.517955   22.615241 C.3        1 MOL1        -0.1369
       9    H6      18.351726   18.189902   23.364618 H          1 MOL1         0.0997
      10    H7      18.756295   18.080335   21.663120 H          1 MOL1         0.0997
      11    C3      20.479023   17.951772   22.995308 C.3        1 MOL1        -0.1329
      12    H8      20.329410   16.955747   23.434598 H          1 MOL1         0.0997
      13    H9      20.938755   18.554725   23.788918 H          1 MOL1         0.0997
      14    C4      21.467617   17.791821   21.811614 C.3        1 MOL1        -0.1305
      15    H10     22.376553   17.300400   22.186163 H          1 MOL1         0.0997
      16    H11     21.041808   17.109557   21.062625 H          1 MOL1         0.0997
      17    C5      21.872652   19.116551   21.128264 C.3        1 MOL1        -0.2320
      18    H12     22.196114   19.863075   21.865036 H          1 MOL1         0.1008
      19    H13     22.705830   18.948610   20.433613 H          1 MOL1         0.1008
      20    H14     21.044478   19.533993   20.543522 H          1 MOL1         0.1008
@<TRIPOS>BOND
    1     1     2    1
    2     1     3    1
    3     1     4    1
    4     1     5    1
    5     5     6    1
    6     5     7    1
    7     5     8    1
    8     8     9    1
    9     8    10    1
   10     8    11    1
   11    11    12    1
   12    11    13    1
   13    11    14    1
   14    14    15    1
   15    14    16    1
   16    14    17    1
   17    17    18    1
   18    17    19    1
   19    17    20    1
@<TRIPOS>SUBSTRUCTURE
       1 MOL1            1 RESIDUE      1      MOL     
@<SCITEGIC>MOL_PROPERTY
VConf Rank
SciTegic.value.IntegerValue
301

@<SCITEGIC>MOL_PROPERTY
Conf_Id
SciTegic.value.IntegerValue
80

@<SCITEGIC>MOL_PROPERTY
Delta U+W
SciTegic.value.DoubleValue
2.920

@<SCITEGIC>MOL_PROPERTY
U+W
SciTegic.value.DoubleValue
-8.857

@<SCITEGIC>MOL_PROPERTY
Grad RMS
SciTegic.value.DoubleValue
0.000000

@<SCITEGIC>MOL_PROPERTY
U
SciTegic.value.DoubleValue
49.434

@<SCITEGIC>MOL_PROPERTY
W
SciTegic.value.DoubleValue
-58.292

@<SCITEGIC>MOL_PROPERTY
W(PB)
SciTegic.value.DoubleValue
-60.170

@<SCITEGIC>MOL_PROPERTY
W(SA)
SciTegic.value.DoubleValue
1.879

@<SCITEGIC>MOL_PROPERTY
Valence
SciTegic.value.DoubleValue
3.798

@<SCITEGIC>MOL_PROPERTY
Coulomb
SciTegic.value.DoubleValue
45.253

@<SCITEGIC>MOL_PROPERTY
VdW
SciTegic.value.DoubleValue
0.384

@<SCITEGIC>MOL_PROPERTY
VdW6
SciTegic.value.DoubleValue
-5.595

@<SCITEGIC>MOL_PROPERTY
VdW12
SciTegic.value.DoubleValue
5.979

@<SCITEGIC>MOL_PROPERTY
Bond
SciTegic.value.DoubleValue
0.198

@<SCITEGIC>MOL_PROPERTY
Angle
SciTegic.value.DoubleValue
1.368

@<SCITEGIC>MOL_PROPERTY
Pdih
SciTegic.value.DoubleValue
2.231

@<SCITEGIC>MOL_PROPERTY
Idih
SciTegic.value.DoubleValue
0.000

@<SCITEGIC>MOL_PROPERTY
Tether
SciTegic.value.DoubleValue
0.000

@<TRIPOS>MOLECULE
guest-s11_confgen4.mol2 : confsearch ligand conformer 302
          20          19           1
SMALL
USER_CHARGES
 
@<TRIPOS>ATOM
       1    N1      22.369792   18.518891   21.967680 N.4        1 MOL1        -0.5919
       2    H1      22.892669   19.036620   21.254485 H          1 MOL1         0.3682
       3    H2      23.043239   17.916362   22.452215 H          1 MOL1         0.3682
       4    H3      21.716513   17.902184   21.476166 H          1 MOL1         0.3682
       5    C1      21.653229   19.448366   22.928081 C.3        1 MOL1         0.0252
       6    H4      22.415291   20.040553   23.441986 H          1 MOL1         0.0971
       7    H5      21.145827   18.834787   23.674125 H          1 MOL1         0.0971
       8    C2      20.649908   20.400436   22.242780 C.3        1 MOL1        -0.1369
       9    H6      20.273232   21.122847   22.978888 H          1 MOL1         0.0997
      10    H7      21.196731   20.990670   21.495499 H          1 MOL1         0.0997
      11    C3      19.454677   19.694156   21.547858 C.3        1 MOL1        -0.1329
      12    H8      19.793294   18.800130   21.008620 H          1 MOL1         0.0997
      13    H9      19.066552   20.372016   20.775014 H          1 MOL1         0.0997
      14    C4      18.271784   19.332508   22.482747 C.3        1 MOL1        -0.1305
      15    H10     17.873971   20.245543   22.947391 H          1 MOL1         0.0997
      16    H11     17.457108   18.927371   21.866213 H          1 MOL1         0.0997
      17    C5      18.612659   18.303031   23.582705 C.3        1 MOL1        -0.2320
      18    H12     19.253146   18.742417   24.356506 H          1 MOL1         0.1008
      19    H13     17.696735   17.957767   24.079499 H          1 MOL1         0.1008
      20    H14     19.118173   17.423590   23.163421 H          1 MOL1         0.1008
@<TRIPOS>BOND
    1     1     2    1
    2     1     3    1
    3     1     4    1
    4     1     5    1
    5     5     6    1
    6     5     7    1
    7     5     8    1
    8     8     9    1
    9     8    10    1
   10     8    11    1
   11    11    12    1
   12    11    13    1
   13    11    14    1
   14    14    15    1
   15    14    16    1
   16    14    17    1
   17    17    18    1
   18    17    19    1
   19    17    20    1
@<TRIPOS>SUBSTRUCTURE
       1 MOL1            1 RESIDUE      1      MOL     
@<SCITEGIC>MOL_PROPERTY
VConf Rank
SciTegic.value.IntegerValue
302

@<SCITEGIC>MOL_PROPERTY
Conf_Id
SciTegic.value.IntegerValue
65

@<SCITEGIC>MOL_PROPERTY
Delta U+W
SciTegic.value.DoubleValue
2.949

@<SCITEGIC>MOL_PROPERTY
U+W
SciTegic.value.DoubleValue
-8.829

@<SCITEGIC>MOL_PROPERTY
Grad RMS
SciTegic.value.DoubleValue
0.000000

@<SCITEGIC>MOL_PROPERTY
U
SciTegic.value.DoubleValue
49.435

@<SCITEGIC>MOL_PROPERTY
W
SciTegic.value.DoubleValue
-58.263

@<SCITEGIC>MOL_PROPERTY
W(PB)
SciTegic.value.DoubleValue
-60.125

@<SCITEGIC>MOL_PROPERTY
W(SA)
SciTegic.value.DoubleValue
1.862

@<SCITEGIC>MOL_PROPERTY
Valence
SciTegic.value.DoubleValue
3.797

@<SCITEGIC>MOL_PROPERTY
Coulomb
SciTegic.value.DoubleValue
45.253

@<SCITEGIC>MOL_PROPERTY
VdW
SciTegic.value.DoubleValue
0.384

@<SCITEGIC>MOL_PROPERTY
VdW6
SciTegic.value.DoubleValue
-5.596

@<SCITEGIC>MOL_PROPERTY
VdW12
SciTegic.value.DoubleValue
5.980

@<SCITEGIC>MOL_PROPERTY
Bond
SciTegic.value.DoubleValue
0.198

@<SCITEGIC>MOL_PROPERTY
Angle
SciTegic.value.DoubleValue
1.369

@<SCITEGIC>MOL_PROPERTY
Pdih
SciTegic.value.DoubleValue
2.230

@<SCITEGIC>MOL_PROPERTY
Idih
SciTegic.value.DoubleValue
0.000

@<SCITEGIC>MOL_PROPERTY
Tether
SciTegic.value.DoubleValue
0.000

@<TRIPOS>MOLECULE
guest-s11_confgen4.mol2 : confsearch ligand conformer 303
          20          19           1
SMALL
USER_CHARGES
 
@<TRIPOS>ATOM
       1    N1      18.909932   18.355884   21.157940 N.4        1 MOL1        -0.5919
       2    H1      18.249233   17.571696   21.143522 H          1 MOL1         0.3682
       3    H2      18.565750   19.033261   21.845271 H          1 MOL1         0.3682
       4    H3      18.860988   18.803741   20.237377 H          1 MOL1         0.3682
       5    C1      20.318245   17.900400   21.487702 C.3        1 MOL1         0.0252
       6    H4      20.612584   17.186572   20.713535 H          1 MOL1         0.0971
       7    H5      20.301324   17.373891   22.445670 H          1 MOL1         0.0971
       8    C2      21.351452   19.044292   21.536727 C.3        1 MOL1        -0.1369
       9    H6      22.342963   18.605877   21.362053 H          1 MOL1         0.0997
      10    H7      21.180007   19.736196   20.701453 H          1 MOL1         0.0997
      11    C3      21.409188   19.826304   22.876498 C.3        1 MOL1        -0.1329
      12    H8      22.217147   20.566075   22.790092 H          1 MOL1         0.0997
      13    H9      21.713860   19.153391   23.690027 H          1 MOL1         0.0997
      14    C4      20.110652   20.577732   23.265957 C.3        1 MOL1        -0.1305
      15    H10     20.386470   21.517424   23.765117 H          1 MOL1         0.0997
      16    H11     19.553564   20.873894   22.366955 H          1 MOL1         0.0997
      17    C5      19.211096   19.774393   24.235114 C.3        1 MOL1        -0.2320
      18    H12     18.946918   18.787123   23.841281 H          1 MOL1         0.1008
      19    H13     19.720263   19.619529   25.195368 H          1 MOL1         0.1008
      20    H14     18.279791   20.318543   24.439448 H          1 MOL1         0.1008
@<TRIPOS>BOND
    1     1     2    1
    2     1     3    1
    3     1     4    1
    4     1     5    1
    5     5     6    1
    6     5     7    1
    7     5     8    1
    8     8     9    1
    9     8    10    1
   10     8    11    1
   11    11    12    1
   12    11    13    1
   13    11    14    1
   14    14    15    1
   15    14    16    1
   16    14    17    1
   17    17    18    1
   18    17    19    1
   19    17    20    1
@<TRIPOS>SUBSTRUCTURE
       1 MOL1            1 RESIDUE      1      MOL     
@<SCITEGIC>MOL_PROPERTY
VConf Rank
SciTegic.value.IntegerValue
303

@<SCITEGIC>MOL_PROPERTY
Conf_Id
SciTegic.value.IntegerValue
77

@<SCITEGIC>MOL_PROPERTY
Delta U+W
SciTegic.value.DoubleValue
5.366

@<SCITEGIC>MOL_PROPERTY
U+W
SciTegic.value.DoubleValue
-6.412

@<SCITEGIC>MOL_PROPERTY
Grad RMS
SciTegic.value.DoubleValue
0.000000

@<SCITEGIC>MOL_PROPERTY
U
SciTegic.value.DoubleValue
51.542

@<SCITEGIC>MOL_PROPERTY
W
SciTegic.value.DoubleValue
-57.954

@<SCITEGIC>MOL_PROPERTY
W(PB)
SciTegic.value.DoubleValue
-59.811

@<SCITEGIC>MOL_PROPERTY
W(SA)
SciTegic.value.DoubleValue
1.857

@<SCITEGIC>MOL_PROPERTY
Valence
SciTegic.value.DoubleValue
5.347

@<SCITEGIC>MOL_PROPERTY
Coulomb
SciTegic.value.DoubleValue
45.870

@<SCITEGIC>MOL_PROPERTY
VdW
SciTegic.value.DoubleValue
0.325

@<SCITEGIC>MOL_PROPERTY
VdW6
SciTegic.value.DoubleValue
-6.161

@<SCITEGIC>MOL_PROPERTY
VdW12
SciTegic.value.DoubleValue
6.486

@<SCITEGIC>MOL_PROPERTY
Bond
SciTegic.value.DoubleValue
0.201

@<SCITEGIC>MOL_PROPERTY
Angle
SciTegic.value.DoubleValue
1.484

@<SCITEGIC>MOL_PROPERTY
Pdih
SciTegic.value.DoubleValue
3.662

@<SCITEGIC>MOL_PROPERTY
Idih
SciTegic.value.DoubleValue
0.000

@<SCITEGIC>MOL_PROPERTY
Tether
SciTegic.value.DoubleValue
0.000

@<TRIPOS>MOLECULE
guest-s11_confgen4.mol2 : confsearch ligand conformer 304
          20          19           1
SMALL
USER_CHARGES
 
@<TRIPOS>ATOM
       1    N1      21.238877   19.313488   20.798353 N.4        1 MOL1        -0.5919
       2    H1      22.110522   19.840380   20.912486 H          1 MOL1         0.3682
       3    H2      21.325768   18.456461   21.353043 H          1 MOL1         0.3682
       4    H3      21.185078   19.036033   19.812551 H          1 MOL1         0.3682
       5    C1      20.030745   20.126254   21.221901 C.3        1 MOL1         0.0252
       6    H4      19.127792   19.544341   21.018792 H          1 MOL1         0.0971
       7    H5      20.008527   21.018395   20.590150 H          1 MOL1         0.0971
       8    C2      20.053769   20.558164   22.702216 C.3        1 MOL1        -0.1369
       9    H6      21.063280   20.892106   22.976406 H          1 MOL1         0.0997
      10    H7      19.409963   21.442138   22.801790 H          1 MOL1         0.0997
      11    C3      19.550748   19.490411   23.710549 C.3        1 MOL1        -0.1329
      12    H8      18.494769   19.258242   23.514411 H          1 MOL1         0.0997
      13    H9      19.569489   19.947876   24.709499 H          1 MOL1         0.0997
      14    C4      20.381315   18.182904   23.766258 C.3        1 MOL1        -0.1305
      15    H10     21.428797   18.381358   23.502327 H          1 MOL1         0.0997
      16    H11     20.401512   17.825220   24.805447 H          1 MOL1         0.0997
      17    C5      19.793968   17.052028   22.888782 C.3        1 MOL1        -0.2320
      18    H12     20.441953   16.166229   22.914401 H          1 MOL1         0.1008
      19    H13     18.806162   16.749103   23.259995 H          1 MOL1         0.1008
      20    H14     19.672840   17.352738   21.842601 H          1 MOL1         0.1008
@<TRIPOS>BOND
    1     1     2    1
    2     1     3    1
    3     1     4    1
    4     1     5    1
    5     5     6    1
    6     5     7    1
    7     5     8    1
    8     8     9    1
    9     8    10    1
   10     8    11    1
   11    11    12    1
   12    11    13    1
   13    11    14    1
   14    14    15    1
   15    14    16    1
   16    14    17    1
   17    17    18    1
   18    17    19    1
   19    17    20    1
@<TRIPOS>SUBSTRUCTURE
       1 MOL1            1 RESIDUE      1      MOL     
@<SCITEGIC>MOL_PROPERTY
VConf Rank
SciTegic.value.IntegerValue
304

@<SCITEGIC>MOL_PROPERTY
Conf_Id
SciTegic.value.IntegerValue
67

@<SCITEGIC>MOL_PROPERTY
Delta U+W
SciTegic.value.DoubleValue
5.353

@<SCITEGIC>MOL_PROPERTY
U+W
SciTegic.value.DoubleValue
-6.425

@<SCITEGIC>MOL_PROPERTY
Grad RMS
SciTegic.value.DoubleValue
0.000000

@<SCITEGIC>MOL_PROPERTY
U
SciTegic.value.DoubleValue
51.541

@<SCITEGIC>MOL_PROPERTY
W
SciTegic.value.DoubleValue
-57.966

@<SCITEGIC>MOL_PROPERTY
W(PB)
SciTegic.value.DoubleValue
-59.821

@<SCITEGIC>MOL_PROPERTY
W(SA)
SciTegic.value.DoubleValue
1.855

@<SCITEGIC>MOL_PROPERTY
Valence
SciTegic.value.DoubleValue
5.347

@<SCITEGIC>MOL_PROPERTY
Coulomb
SciTegic.value.DoubleValue
45.870

@<SCITEGIC>MOL_PROPERTY
VdW
SciTegic.value.DoubleValue
0.325

@<SCITEGIC>MOL_PROPERTY
VdW6
SciTegic.value.DoubleValue
-6.161

@<SCITEGIC>MOL_PROPERTY
VdW12
SciTegic.value.DoubleValue
6.486

@<SCITEGIC>MOL_PROPERTY
Bond
SciTegic.value.DoubleValue
0.201

@<SCITEGIC>MOL_PROPERTY
Angle
SciTegic.value.DoubleValue
1.485

@<SCITEGIC>MOL_PROPERTY
Pdih
SciTegic.value.DoubleValue
3.662

@<SCITEGIC>MOL_PROPERTY
Idih
SciTegic.value.DoubleValue
0.000

@<SCITEGIC>MOL_PROPERTY
Tether
SciTegic.value.DoubleValue
0.000

@<TRIPOS>MOLECULE
guest-s11_confgen4.mol2 : confsearch ligand conformer 305
          20          19           1
SMALL
USER_CHARGES
 
@<TRIPOS>ATOM
       1    N1      22.095866   21.124348   24.067802 N.4        1 MOL1        -0.5919
       2    H1      21.917118   20.769507   25.012538 H          1 MOL1         0.3682
       3    H2      23.082670   21.401520   24.036270 H          1 MOL1         0.3682
       4    H3      21.543281   21.980498   23.958056 H          1 MOL1         0.3682
       5    C1      21.765451   20.096430   23.004458 C.3        1 MOL1         0.0252
       6    H4      22.409515   19.227290   23.163498 H          1 MOL1         0.0971
       7    H5      22.007449   20.529159   22.029934 H          1 MOL1         0.0971
       8    C2      20.290054   19.658175   23.024458 C.3        1 MOL1        -0.1369
       9    H6      20.047220   19.238959   24.010032 H          1 MOL1         0.0997
      10    H7      19.646521   20.536340   22.880373 H          1 MOL1         0.0997
      11    C3      19.995595   18.611561   21.926904 C.3        1 MOL1        -0.1329
      12    H8      20.644826   17.736621   22.071016 H          1 MOL1         0.0997
      13    H9      20.244524   19.032469   20.942697 H          1 MOL1         0.0997
      14    C4      18.516714   18.163971   21.937541 C.3        1 MOL1        -0.1305
      15    H10     18.264012   17.740330   22.919741 H          1 MOL1         0.0997
      16    H11     17.863765   19.035964   21.791486 H          1 MOL1         0.0997
      17    C5      18.227230   17.118314   20.839461 C.3        1 MOL1        -0.2320
      18    H12     18.841221   16.218952   20.978666 H          1 MOL1         0.1008
      19    H13     17.173048   16.813042   20.862991 H          1 MOL1         0.1008
      20    H14     18.437711   17.524735   19.841596 H          1 MOL1         0.1008
@<TRIPOS>BOND
    1     1     2    1
    2     1     3    1
    3     1     4    1
    4     1     5    1
    5     5     6    1
    6     5     7    1
    7     5     8    1
    8     8     9    1
    9     8    10    1
   10     8    11    1
   11    11    12    1
   12    11    13    1
   13    11    14    1
   14    14    15    1
   15    14    16    1
   16    14    17    1
   17    17    18    1
   18    17    19    1
   19    17    20    1
@<TRIPOS>SUBSTRUCTURE
       1 MOL1            1 RESIDUE      1      MOL     
@<SCITEGIC>MOL_PROPERTY
VConf Rank
SciTegic.value.IntegerValue
305

@<SCITEGIC>MOL_PROPERTY
Conf_Id
SciTegic.value.IntegerValue
72

@<SCITEGIC>MOL_PROPERTY
Delta U+W
SciTegic.value.DoubleValue
0.000

@<SCITEGIC>MOL_PROPERTY
U+W
SciTegic.value.DoubleValue
-11.778

@<SCITEGIC>MOL_PROPERTY
Grad RMS
SciTegic.value.DoubleValue
0.000000

@<SCITEGIC>MOL_PROPERTY
U
SciTegic.value.DoubleValue
45.772

@<SCITEGIC>MOL_PROPERTY
W
SciTegic.value.DoubleValue
-57.550

@<SCITEGIC>MOL_PROPERTY
W(PB)
SciTegic.value.DoubleValue
-59.511

@<SCITEGIC>MOL_PROPERTY
W(SA)
SciTegic.value.DoubleValue
1.961

@<SCITEGIC>MOL_PROPERTY
Valence
SciTegic.value.DoubleValue
1.299

@<SCITEGIC>MOL_PROPERTY
Coulomb
SciTegic.value.DoubleValue
44.177

@<SCITEGIC>MOL_PROPERTY
VdW
SciTegic.value.DoubleValue
0.297

@<SCITEGIC>MOL_PROPERTY
VdW6
SciTegic.value.DoubleValue
-3.490

@<SCITEGIC>MOL_PROPERTY
VdW12
SciTegic.value.DoubleValue
3.786

@<SCITEGIC>MOL_PROPERTY
Bond
SciTegic.value.DoubleValue
0.096

@<SCITEGIC>MOL_PROPERTY
Angle
SciTegic.value.DoubleValue
0.381

@<SCITEGIC>MOL_PROPERTY
Pdih
SciTegic.value.DoubleValue
0.822

@<SCITEGIC>MOL_PROPERTY
Idih
SciTegic.value.DoubleValue
0.000

@<SCITEGIC>MOL_PROPERTY
Tether
SciTegic.value.DoubleValue
0.000

@<TRIPOS>MOLECULE
guest-s11_confgen4.mol2 : confsearch ligand conformer 306
          20          19           1
SMALL
USER_CHARGES
 
@<TRIPOS>ATOM
       1    N1      19.943477   20.335699   25.250334 N.4        1 MOL1        -0.5919
       2    H1      19.195339   19.683690   25.506280 H          1 MOL1         0.3682
       3    H2      20.819861   19.945212   25.610659 H          1 MOL1         0.3682
       4    H3      19.770461   21.204276   25.767268 H          1 MOL1         0.3682
       5    C1      20.001538   20.572761   23.754672 C.3        1 MOL1         0.0252
       6    H4      20.796839   21.296998   23.558533 H          1 MOL1         0.0971
       7    H5      19.050592   21.015276   23.445824 H          1 MOL1         0.0971
       8    C2      20.260785   19.287832   22.947815 C.3        1 MOL1        -0.1369
       9    H6      21.208662   18.838326   23.272291 H          1 MOL1         0.0997
      10    H7      19.466965   18.562313   23.165849 H          1 MOL1         0.0997
      11    C3      20.314405   19.576839   21.429023 C.3        1 MOL1        -0.1329
      12    H8      21.061484   20.360380   21.240136 H          1 MOL1         0.0997
      13    H9      19.349679   19.983732   21.095365 H          1 MOL1         0.0997
      14    C4      20.675644   18.336245   20.576320 C.3        1 MOL1        -0.1305
      15    H10     20.794843   18.650208   19.529822 H          1 MOL1         0.0997
      16    H11     21.651406   17.940147   20.890757 H          1 MOL1         0.0997
      17    C5      19.613831   17.214732   20.641841 C.3        1 MOL1        -0.2320
      18    H12     18.622543   17.592002   20.358943 H          1 MOL1         0.1008
      19    H13     19.871937   16.400726   19.952110 H          1 MOL1         0.1008
      20    H14     19.543735   16.783503   21.648096 H          1 MOL1         0.1008
@<TRIPOS>BOND
    1     1     2    1
    2     1     3    1
    3     1     4    1
    4     1     5    1
    5     5     6    1
    6     5     7    1
    7     5     8    1
    8     8     9    1
    9     8    10    1
   10     8    11    1
   11    11    12    1
   12    11    13    1
   13    11    14    1
   14    14    15    1
   15    14    16    1
   16    14    17    1
   17    17    18    1
   18    17    19    1
   19    17    20    1
@<TRIPOS>SUBSTRUCTURE
       1 MOL1            1 RESIDUE      1      MOL     
@<SCITEGIC>MOL_PROPERTY
VConf Rank
SciTegic.value.IntegerValue
306

@<SCITEGIC>MOL_PROPERTY
Conf_Id
SciTegic.value.IntegerValue
42

@<SCITEGIC>MOL_PROPERTY
Delta U+W
SciTegic.value.DoubleValue
0.508

@<SCITEGIC>MOL_PROPERTY
U+W
SciTegic.value.DoubleValue
-11.270

@<SCITEGIC>MOL_PROPERTY
Grad RMS
SciTegic.value.DoubleValue
0.000000

@<SCITEGIC>MOL_PROPERTY
U
SciTegic.value.DoubleValue
46.486

@<SCITEGIC>MOL_PROPERTY
W
SciTegic.value.DoubleValue
-57.756

@<SCITEGIC>MOL_PROPERTY
W(PB)
SciTegic.value.DoubleValue
-59.705

@<SCITEGIC>MOL_PROPERTY
W(SA)
SciTegic.value.DoubleValue
1.949

@<SCITEGIC>MOL_PROPERTY
Valence
SciTegic.value.DoubleValue
1.806

@<SCITEGIC>MOL_PROPERTY
Coulomb
SciTegic.value.DoubleValue
44.248

@<SCITEGIC>MOL_PROPERTY
VdW
SciTegic.value.DoubleValue
0.433

@<SCITEGIC>MOL_PROPERTY
VdW6
SciTegic.value.DoubleValue
-4.089

@<SCITEGIC>MOL_PROPERTY
VdW12
SciTegic.value.DoubleValue
4.522

@<SCITEGIC>MOL_PROPERTY
Bond
SciTegic.value.DoubleValue
0.131

@<SCITEGIC>MOL_PROPERTY
Angle
SciTegic.value.DoubleValue
0.628

@<SCITEGIC>MOL_PROPERTY
Pdih
SciTegic.value.DoubleValue
1.047

@<SCITEGIC>MOL_PROPERTY
Idih
SciTegic.value.DoubleValue
0.000

@<SCITEGIC>MOL_PROPERTY
Tether
SciTegic.value.DoubleValue
0.000

@<TRIPOS>MOLECULE
guest-s11_confgen4.mol2 : confsearch ligand conformer 307
          20          19           1
SMALL
USER_CHARGES
 
@<TRIPOS>ATOM
       1    N1      19.990158   21.364041   24.399057 N.4        1 MOL1        -0.5919
       2    H1      20.901275   21.232723   24.849596 H          1 MOL1         0.3682
       3    H2      20.124542   22.037182   23.638035 H          1 MOL1         0.3682
       4    H3      19.379452   21.813784   25.089239 H          1 MOL1         0.3682
       5    C1      19.409990   20.055208   23.902121 C.3        1 MOL1         0.0252
       6    H4      18.430890   20.265051   23.462991 H          1 MOL1         0.0971
       7    H5      19.265514   19.400678   24.765956 H          1 MOL1         0.0971
       8    C2      20.303132   19.352725   22.863813 C.3        1 MOL1        -0.1369
       9    H6      20.455839   20.025005   22.010122 H          1 MOL1         0.0997
      10    H7      21.290275   19.158228   23.303735 H          1 MOL1         0.0997
      11    C3      19.674175   18.022261   22.386936 C.3        1 MOL1        -0.1329
      12    H8      18.706902   18.221823   21.905122 H          1 MOL1         0.0997
      13    H9      19.458729   17.394270   23.262696 H          1 MOL1         0.0997
      14    C4      20.579625   17.222850   21.418550 C.3        1 MOL1        -0.1305
      15    H10     21.539559   17.000305   21.905250 H          1 MOL1         0.0997
      16    H11     20.106886   16.251896   21.214335 H          1 MOL1         0.0997
      17    C5      20.832897   17.945573   20.075770 C.3        1 MOL1        -0.2320
      18    H12     21.411700   18.866833   20.216089 H          1 MOL1         0.1008
      19    H13     21.401419   17.300314   19.393586 H          1 MOL1         0.1008
      20    H14     19.887382   18.204665   19.581921 H          1 MOL1         0.1008
@<TRIPOS>BOND
    1     1     2    1
    2     1     3    1
    3     1     4    1
    4     1     5    1
    5     5     6    1
    6     5     7    1
    7     5     8    1
    8     8     9    1
    9     8    10    1
   10     8    11    1
   11    11    12    1
   12    11    13    1
   13    11    14    1
   14    14    15    1
   15    14    16    1
   16    14    17    1
   17    17    18    1
   18    17    19    1
   19    17    20    1
@<TRIPOS>SUBSTRUCTURE
       1 MOL1            1 RESIDUE      1      MOL     
@<SCITEGIC>MOL_PROPERTY
VConf Rank
SciTegic.value.IntegerValue
307

@<SCITEGIC>MOL_PROPERTY
Conf_Id
SciTegic.value.IntegerValue
41

@<SCITEGIC>MOL_PROPERTY
Delta U+W
SciTegic.value.DoubleValue
0.515

@<SCITEGIC>MOL_PROPERTY
U+W
SciTegic.value.DoubleValue
-11.263

@<SCITEGIC>MOL_PROPERTY
Grad RMS
SciTegic.value.DoubleValue
0.000000

@<SCITEGIC>MOL_PROPERTY
U
SciTegic.value.DoubleValue
46.486

@<SCITEGIC>MOL_PROPERTY
W
SciTegic.value.DoubleValue
-57.749

@<SCITEGIC>MOL_PROPERTY
W(PB)
SciTegic.value.DoubleValue
-59.685

@<SCITEGIC>MOL_PROPERTY
W(SA)
SciTegic.value.DoubleValue
1.936

@<SCITEGIC>MOL_PROPERTY
Valence
SciTegic.value.DoubleValue
1.806

@<SCITEGIC>MOL_PROPERTY
Coulomb
SciTegic.value.DoubleValue
44.248

@<SCITEGIC>MOL_PROPERTY
VdW
SciTegic.value.DoubleValue
0.433

@<SCITEGIC>MOL_PROPERTY
VdW6
SciTegic.value.DoubleValue
-4.089

@<SCITEGIC>MOL_PROPERTY
VdW12
SciTegic.value.DoubleValue
4.522

@<SCITEGIC>MOL_PROPERTY
Bond
SciTegic.value.DoubleValue
0.131

@<SCITEGIC>MOL_PROPERTY
Angle
SciTegic.value.DoubleValue
0.628

@<SCITEGIC>MOL_PROPERTY
Pdih
SciTegic.value.DoubleValue
1.047

@<SCITEGIC>MOL_PROPERTY
Idih
SciTegic.value.DoubleValue
0.000

@<SCITEGIC>MOL_PROPERTY
Tether
SciTegic.value.DoubleValue
0.000

@<TRIPOS>MOLECULE
guest-s11_confgen4.mol2 : confsearch ligand conformer 308
          20          19           1
SMALL
USER_CHARGES
 
@<TRIPOS>ATOM
       1    N1      17.538127   19.006500   21.550506 N.4        1 MOL1        -0.5919
       2    H1      16.620971   19.432397   21.380389 H          1 MOL1         0.3682
       3    H2      18.074396   19.097126   20.682669 H          1 MOL1         0.3682
       4    H3      17.377835   18.006102   21.704473 H          1 MOL1         0.3682
       5    C1      18.249149   19.651921   22.724406 C.3        1 MOL1         0.0252
       6    H4      17.599630   19.553901   23.598544 H          1 MOL1         0.0971
       7    H5      18.367233   20.716866   22.506713 H          1 MOL1         0.0971
       8    C2      19.624410   19.031386   23.039783 C.3        1 MOL1        -0.1369
       9    H6      19.995734   19.485164   23.967043 H          1 MOL1         0.0997
      10    H7      19.504896   17.958542   23.240811 H          1 MOL1         0.0997
      11    C3      20.653833   19.247840   21.901999 C.3        1 MOL1        -0.1329
      12    H8      20.785203   20.323857   21.722005 H          1 MOL1         0.0997
      13    H9      20.261101   18.824149   20.968267 H          1 MOL1         0.0997
      14    C4      22.030929   18.599374   22.184978 C.3        1 MOL1        -0.1305
      15    H10     21.906566   17.520291   22.352247 H          1 MOL1         0.0997
      16    H11     22.658439   18.700283   21.288324 H          1 MOL1         0.0997
      17    C5      22.774566   19.229513   23.384850 C.3        1 MOL1        -0.2320
      18    H12     22.247126   19.045904   24.328971 H          1 MOL1         0.1008
      19    H13     23.780309   18.800426   23.481357 H          1 MOL1         0.1008
      20    H14     22.884078   20.314207   23.256594 H          1 MOL1         0.1008
@<TRIPOS>BOND
    1     1     2    1
    2     1     3    1
    3     1     4    1
    4     1     5    1
    5     5     6    1
    6     5     7    1
    7     5     8    1
    8     8     9    1
    9     8    10    1
   10     8    11    1
   11    11    12    1
   12    11    13    1
   13    11    14    1
   14    14    15    1
   15    14    16    1
   16    14    17    1
   17    17    18    1
   18    17    19    1
   19    17    20    1
@<TRIPOS>SUBSTRUCTURE
       1 MOL1            1 RESIDUE      1      MOL     
@<SCITEGIC>MOL_PROPERTY
VConf Rank
SciTegic.value.IntegerValue
308

@<SCITEGIC>MOL_PROPERTY
Conf_Id
SciTegic.value.IntegerValue
33

@<SCITEGIC>MOL_PROPERTY
Delta U+W
SciTegic.value.DoubleValue
0.703

@<SCITEGIC>MOL_PROPERTY
U+W
SciTegic.value.DoubleValue
-11.075

@<SCITEGIC>MOL_PROPERTY
Grad RMS
SciTegic.value.DoubleValue
0.000000

@<SCITEGIC>MOL_PROPERTY
U
SciTegic.value.DoubleValue
47.080

@<SCITEGIC>MOL_PROPERTY
W
SciTegic.value.DoubleValue
-58.154

@<SCITEGIC>MOL_PROPERTY
W(PB)
SciTegic.value.DoubleValue
-60.053

@<SCITEGIC>MOL_PROPERTY
W(SA)
SciTegic.value.DoubleValue
1.899

@<SCITEGIC>MOL_PROPERTY
Valence
SciTegic.value.DoubleValue
1.943

@<SCITEGIC>MOL_PROPERTY
Coulomb
SciTegic.value.DoubleValue
44.572

@<SCITEGIC>MOL_PROPERTY
VdW
SciTegic.value.DoubleValue
0.565

@<SCITEGIC>MOL_PROPERTY
VdW6
SciTegic.value.DoubleValue
-4.575

@<SCITEGIC>MOL_PROPERTY
VdW12
SciTegic.value.DoubleValue
5.139

@<SCITEGIC>MOL_PROPERTY
Bond
SciTegic.value.DoubleValue
0.158

@<SCITEGIC>MOL_PROPERTY
Angle
SciTegic.value.DoubleValue
0.700

@<SCITEGIC>MOL_PROPERTY
Pdih
SciTegic.value.DoubleValue
1.085

@<SCITEGIC>MOL_PROPERTY
Idih
SciTegic.value.DoubleValue
0.000

@<SCITEGIC>MOL_PROPERTY
Tether
SciTegic.value.DoubleValue
0.000

@<TRIPOS>MOLECULE
guest-s11_confgen4.mol2 : confsearch ligand conformer 309
          20          19           1
SMALL
USER_CHARGES
 
@<TRIPOS>ATOM
       1    N1      20.270611   16.678986   21.177563 N.4        1 MOL1        -0.5919
       2    H1      20.757818   15.987990   20.597346 H          1 MOL1         0.3682
       3    H2      19.645961   16.157344   21.800376 H          1 MOL1         0.3682
       4    H3      19.679671   17.231771   20.549743 H          1 MOL1         0.3682
       5    C1      21.242235   17.549203   21.951404 C.3        1 MOL1         0.0252
       6    H4      21.890841   18.057001   21.232450 H          1 MOL1         0.0971
       7    H5      21.863695   16.888311   22.561823 H          1 MOL1         0.0971
       8    C2      20.560597   18.590538   22.860718 C.3        1 MOL1        -0.1369
       9    H6      19.896698   18.078916   23.570064 H          1 MOL1         0.0997
      10    H7      21.340018   19.080446   23.457461 H          1 MOL1         0.0997
      11    C3      19.766501   19.654469   22.061608 C.3        1 MOL1        -0.1329
      12    H8      19.012175   19.155922   21.438669 H          1 MOL1         0.0997
      13    H9      20.441641   20.177624   21.370259 H          1 MOL1         0.0997
      14    C4      19.044448   20.688180   22.959971 C.3        1 MOL1        -0.1305
      15    H10     18.418293   21.330184   22.324594 H          1 MOL1         0.0997
      16    H11     18.357564   20.170721   23.644290 H          1 MOL1         0.0997
      17    C5      20.010489   21.582491   23.770363 C.3        1 MOL1        -0.2320
      18    H12     20.728714   22.087194   23.111247 H          1 MOL1         0.1008
      19    H13     19.452715   22.356592   24.313138 H          1 MOL1         0.1008
      20    H14     20.572766   21.001852   24.511966 H          1 MOL1         0.1008
@<TRIPOS>BOND
    1     1     2    1
    2     1     3    1
    3     1     4    1
    4     1     5    1
    5     5     6    1
    6     5     7    1
    7     5     8    1
    8     8     9    1
    9     8    10    1
   10     8    11    1
   11    11    12    1
   12    11    13    1
   13    11    14    1
   14    14    15    1
   15    14    16    1
   16    14    17    1
   17    17    18    1
   18    17    19    1
   19    17    20    1
@<TRIPOS>SUBSTRUCTURE
       1 MOL1            1 RESIDUE      1      MOL     
@<SCITEGIC>MOL_PROPERTY
VConf Rank
SciTegic.value.IntegerValue
309

@<SCITEGIC>MOL_PROPERTY
Conf_Id
SciTegic.value.IntegerValue
24

@<SCITEGIC>MOL_PROPERTY
Delta U+W
SciTegic.value.DoubleValue
0.847

@<SCITEGIC>MOL_PROPERTY
U+W
SciTegic.value.DoubleValue
-10.931

@<SCITEGIC>MOL_PROPERTY
Grad RMS
SciTegic.value.DoubleValue
0.000000

@<SCITEGIC>MOL_PROPERTY
U
SciTegic.value.DoubleValue
47.080

@<SCITEGIC>MOL_PROPERTY
W
SciTegic.value.DoubleValue
-58.011

@<SCITEGIC>MOL_PROPERTY
W(PB)
SciTegic.value.DoubleValue
-59.914

@<SCITEGIC>MOL_PROPERTY
W(SA)
SciTegic.value.DoubleValue
1.903

@<SCITEGIC>MOL_PROPERTY
Valence
SciTegic.value.DoubleValue
1.943

@<SCITEGIC>MOL_PROPERTY
Coulomb
SciTegic.value.DoubleValue
44.572

@<SCITEGIC>MOL_PROPERTY
VdW
SciTegic.value.DoubleValue
0.565

@<SCITEGIC>MOL_PROPERTY
VdW6
SciTegic.value.DoubleValue
-4.575

@<SCITEGIC>MOL_PROPERTY
VdW12
SciTegic.value.DoubleValue
5.140

@<SCITEGIC>MOL_PROPERTY
Bond
SciTegic.value.DoubleValue
0.158

@<SCITEGIC>MOL_PROPERTY
Angle
SciTegic.value.DoubleValue
0.700

@<SCITEGIC>MOL_PROPERTY
Pdih
SciTegic.value.DoubleValue
1.085

@<SCITEGIC>MOL_PROPERTY
Idih
SciTegic.value.DoubleValue
0.000

@<SCITEGIC>MOL_PROPERTY
Tether
SciTegic.value.DoubleValue
0.000

@<TRIPOS>MOLECULE
guest-s11_confgen4.mol2 : confsearch ligand conformer 310
          20          19           1
SMALL
USER_CHARGES
 
@<TRIPOS>ATOM
       1    N1      20.867073   21.712515   23.345369 N.4        1 MOL1        -0.5919
       2    H1      20.285452   22.389109   23.850767 H          1 MOL1         0.3682
       3    H2      21.522686   21.316772   24.026383 H          1 MOL1         0.3682
       4    H3      21.421551   22.245278   22.667854 H          1 MOL1         0.3682
       5    C1      20.031055   20.641076   22.674982 C.3        1 MOL1         0.0252
       6    H4      19.338231   21.133708   21.987460 H          1 MOL1         0.0971
       7    H5      19.446988   20.137244   23.449581 H          1 MOL1         0.0971
       8    C2      20.875390   19.606953   21.906663 C.3        1 MOL1        -0.1369
       9    H6      21.488718   20.128038   21.159629 H          1 MOL1         0.0997
      10    H7      21.577561   19.118297   22.594141 H          1 MOL1         0.0997
      11    C3      20.010186   18.541981   21.187460 C.3        1 MOL1        -0.1329
      12    H8      20.672251   17.847253   20.652404 H          1 MOL1         0.0997
      13    H9      19.404490   19.036725   20.415544 H          1 MOL1         0.0997
      14    C4      19.069649   17.732004   22.116196 C.3        1 MOL1        -0.1305
      15    H10     18.329443   18.397619   22.580769 H          1 MOL1         0.0997
      16    H11     18.494793   17.024887   21.501861 H          1 MOL1         0.0997
      17    C5      19.819726   16.942664   23.213163 C.3        1 MOL1        -0.2320
      18    H12     19.120699   16.315789   23.781752 H          1 MOL1         0.1008
      19    H13     20.580901   16.284043   22.775206 H          1 MOL1         0.1008
      20    H14     20.314438   17.614335   23.925731 H          1 MOL1         0.1008
@<TRIPOS>BOND
    1     1     2    1
    2     1     3    1
    3     1     4    1
    4     1     5    1
    5     5     6    1
    6     5     7    1
    7     5     8    1
    8     8     9    1
    9     8    10    1
   10     8    11    1
   11    11    12    1
   12    11    13    1
   13    11    14    1
   14    14    15    1
   15    14    16    1
   16    14    17    1
   17    17    18    1
   18    17    19    1
   19    17    20    1
@<TRIPOS>SUBSTRUCTURE
       1 MOL1            1 RESIDUE      1      MOL     
@<SCITEGIC>MOL_PROPERTY
VConf Rank
SciTegic.value.IntegerValue
310

@<SCITEGIC>MOL_PROPERTY
Conf_Id
SciTegic.value.IntegerValue
64

@<SCITEGIC>MOL_PROPERTY
Delta U+W
SciTegic.value.DoubleValue
0.707

@<SCITEGIC>MOL_PROPERTY
U+W
SciTegic.value.DoubleValue
-11.070

@<SCITEGIC>MOL_PROPERTY
Grad RMS
SciTegic.value.DoubleValue
0.000000

@<SCITEGIC>MOL_PROPERTY
U
SciTegic.value.DoubleValue
47.077

@<SCITEGIC>MOL_PROPERTY
W
SciTegic.value.DoubleValue
-58.148

@<SCITEGIC>MOL_PROPERTY
W(PB)
SciTegic.value.DoubleValue
-60.054

@<SCITEGIC>MOL_PROPERTY
W(SA)
SciTegic.value.DoubleValue
1.906

@<SCITEGIC>MOL_PROPERTY
Valence
SciTegic.value.DoubleValue
2.039

@<SCITEGIC>MOL_PROPERTY
Coulomb
SciTegic.value.DoubleValue
44.655

@<SCITEGIC>MOL_PROPERTY
VdW
SciTegic.value.DoubleValue
0.383

@<SCITEGIC>MOL_PROPERTY
VdW6
SciTegic.value.DoubleValue
-4.912

@<SCITEGIC>MOL_PROPERTY
VdW12
SciTegic.value.DoubleValue
5.295

@<SCITEGIC>MOL_PROPERTY
Bond
SciTegic.value.DoubleValue
0.159

@<SCITEGIC>MOL_PROPERTY
Angle
SciTegic.value.DoubleValue
0.856

@<SCITEGIC>MOL_PROPERTY
Pdih
SciTegic.value.DoubleValue
1.024

@<SCITEGIC>MOL_PROPERTY
Idih
SciTegic.value.DoubleValue
0.000

@<SCITEGIC>MOL_PROPERTY
Tether
SciTegic.value.DoubleValue
0.000

@<TRIPOS>MOLECULE
guest-s11_confgen4.mol2 : confsearch ligand conformer 311
          20          19           1
SMALL
USER_CHARGES
 
@<TRIPOS>ATOM
       1    N1      20.391400   20.709246   20.301588 N.4        1 MOL1        -0.5919
       2    H1      20.230603   20.240538   19.404501 H          1 MOL1         0.3682
       3    H2      19.520132   21.187037   20.552245 H          1 MOL1         0.3682
       4    H3      21.092966   21.438170   20.134365 H          1 MOL1         0.3682
       5    C1      20.834189   19.737442   21.376699 C.3        1 MOL1         0.0252
       6    H4      21.015377   20.308177   22.291257 H          1 MOL1         0.0971
       7    H5      21.778961   19.288598   21.058387 H          1 MOL1         0.0971
       8    C2      19.801241   18.628701   21.652984 C.3        1 MOL1        -0.1369
       9    H6      18.849673   19.078581   21.963761 H          1 MOL1         0.0997
      10    H7      19.595714   18.088773   20.719176 H          1 MOL1         0.0997
      11    C3      20.281634   17.614417   22.720901 C.3        1 MOL1        -0.1329
      12    H8      21.164363   17.084144   22.337375 H          1 MOL1         0.0997
      13    H9      19.505948   16.848629   22.859259 H          1 MOL1         0.0997
      14    C4      20.632010   18.235447   24.097411 C.3        1 MOL1        -0.1305
      15    H10     20.976144   17.433809   24.765865 H          1 MOL1         0.0997
      16    H11     21.479043   18.927713   23.997022 H          1 MOL1         0.0997
      17    C5      19.442356   18.962947   24.764102 C.3        1 MOL1        -0.2320
      18    H12     18.574474   18.297317   24.857341 H          1 MOL1         0.1008
      19    H13     19.714943   19.301910   25.771924 H          1 MOL1         0.1008
      20    H14     19.138046   19.847039   24.190158 H          1 MOL1         0.1008
@<TRIPOS>BOND
    1     1     2    1
    2     1     3    1
    3     1     4    1
    4     1     5    1
    5     5     6    1
    6     5     7    1
    7     5     8    1
    8     8     9    1
    9     8    10    1
   10     8    11    1
   11    11    12    1
   12    11    13    1
   13    11    14    1
   14    14    15    1
   15    14    16    1
   16    14    17    1
   17    17    18    1
   18    17    19    1
   19    17    20    1
@<TRIPOS>SUBSTRUCTURE
       1 MOL1            1 RESIDUE      1      MOL     
@<SCITEGIC>MOL_PROPERTY
VConf Rank
SciTegic.value.IntegerValue
311

@<SCITEGIC>MOL_PROPERTY
Conf_Id
SciTegic.value.IntegerValue
22

@<SCITEGIC>MOL_PROPERTY
Delta U+W
SciTegic.value.DoubleValue
0.731

@<SCITEGIC>MOL_PROPERTY
U+W
SciTegic.value.DoubleValue
-11.047

@<SCITEGIC>MOL_PROPERTY
Grad RMS
SciTegic.value.DoubleValue
0.000000

@<SCITEGIC>MOL_PROPERTY
U
SciTegic.value.DoubleValue
47.078

@<SCITEGIC>MOL_PROPERTY
W
SciTegic.value.DoubleValue
-58.125

@<SCITEGIC>MOL_PROPERTY
W(PB)
SciTegic.value.DoubleValue
-60.031

@<SCITEGIC>MOL_PROPERTY
W(SA)
SciTegic.value.DoubleValue
1.906

@<SCITEGIC>MOL_PROPERTY
Valence
SciTegic.value.DoubleValue
2.039

@<SCITEGIC>MOL_PROPERTY
Coulomb
SciTegic.value.DoubleValue
44.655

@<SCITEGIC>MOL_PROPERTY
VdW
SciTegic.value.DoubleValue
0.383

@<SCITEGIC>MOL_PROPERTY
VdW6
SciTegic.value.DoubleValue
-4.913

@<SCITEGIC>MOL_PROPERTY
VdW12
SciTegic.value.DoubleValue
5.296

@<SCITEGIC>MOL_PROPERTY
Bond
SciTegic.value.DoubleValue
0.159

@<SCITEGIC>MOL_PROPERTY
Angle
SciTegic.value.DoubleValue
0.856

@<SCITEGIC>MOL_PROPERTY
Pdih
SciTegic.value.DoubleValue
1.024

@<SCITEGIC>MOL_PROPERTY
Idih
SciTegic.value.DoubleValue
0.000

@<SCITEGIC>MOL_PROPERTY
Tether
SciTegic.value.DoubleValue
0.000

@<TRIPOS>MOLECULE
guest-s11_confgen4.mol2 : confsearch ligand conformer 312
          20          19           1
SMALL
USER_CHARGES
 
@<TRIPOS>ATOM
       1    N1      21.450489   16.948267   23.408475 N.4        1 MOL1        -0.5919
       2    H1      22.243152   16.878791   22.762570 H          1 MOL1         0.3682
       3    H2      21.838540   17.061893   24.350184 H          1 MOL1         0.3682
       4    H3      20.972676   16.041128   23.391574 H          1 MOL1         0.3682
       5    C1      20.517118   18.083777   23.039627 C.3        1 MOL1         0.0252
       6    H4      19.685327   18.082157   23.749217 H          1 MOL1         0.0971
       7    H5      20.123299   17.878349   22.041643 H          1 MOL1         0.0971
       8    C2      21.206187   19.459909   23.050310 C.3        1 MOL1        -0.1369
       9    H6      21.699634   19.600094   24.021279 H          1 MOL1         0.0997
      10    H7      22.001464   19.476398   22.293310 H          1 MOL1         0.0997
      11    C3      20.239613   20.648362   22.815300 C.3        1 MOL1        -0.1329
      12    H8      20.819867   21.573872   22.934830 H          1 MOL1         0.0997
      13    H9      19.473463   20.675003   23.602480 H          1 MOL1         0.0997
      14    C4      19.571069   20.679703   21.416280 C.3        1 MOL1        -0.1305
      15    H10     19.351076   21.726335   21.162770 H          1 MOL1         0.0997
      16    H11     20.274185   20.325318   20.649613 H          1 MOL1         0.0997
      17    C5      18.245776   19.885905   21.336779 C.3        1 MOL1        -0.2320
      18    H12     18.394643   18.811778   21.488317 H          1 MOL1         0.1008
      19    H13     17.528954   20.240041   22.088948 H          1 MOL1         0.1008
      20    H14     17.782074   20.015532   20.350290 H          1 MOL1         0.1008
@<TRIPOS>BOND
    1     1     2    1
    2     1     3    1
    3     1     4    1
    4     1     5    1
    5     5     6    1
    6     5     7    1
    7     5     8    1
    8     8     9    1
    9     8    10    1
   10     8    11    1
   11    11    12    1
   12    11    13    1
   13    11    14    1
   14    14    15    1
   15    14    16    1
   16    14    17    1
   17    17    18    1
   18    17    19    1
   19    17    20    1
@<TRIPOS>SUBSTRUCTURE
       1 MOL1            1 RESIDUE      1      MOL     
@<SCITEGIC>MOL_PROPERTY
VConf Rank
SciTegic.value.IntegerValue
312

@<SCITEGIC>MOL_PROPERTY
Conf_Id
SciTegic.value.IntegerValue
61

@<SCITEGIC>MOL_PROPERTY
Delta U+W
SciTegic.value.DoubleValue
2.669

@<SCITEGIC>MOL_PROPERTY
U+W
SciTegic.value.DoubleValue
-9.108

@<SCITEGIC>MOL_PROPERTY
Grad RMS
SciTegic.value.DoubleValue
0.000000

@<SCITEGIC>MOL_PROPERTY
U
SciTegic.value.DoubleValue
48.916

@<SCITEGIC>MOL_PROPERTY
W
SciTegic.value.DoubleValue
-58.025

@<SCITEGIC>MOL_PROPERTY
W(PB)
SciTegic.value.DoubleValue
-59.935

@<SCITEGIC>MOL_PROPERTY
W(SA)
SciTegic.value.DoubleValue
1.911

@<SCITEGIC>MOL_PROPERTY
Valence
SciTegic.value.DoubleValue
3.785

@<SCITEGIC>MOL_PROPERTY
Coulomb
SciTegic.value.DoubleValue
44.716

@<SCITEGIC>MOL_PROPERTY
VdW
SciTegic.value.DoubleValue
0.415

@<SCITEGIC>MOL_PROPERTY
VdW6
SciTegic.value.DoubleValue
-4.836

@<SCITEGIC>MOL_PROPERTY
VdW12
SciTegic.value.DoubleValue
5.251

@<SCITEGIC>MOL_PROPERTY
Bond
SciTegic.value.DoubleValue
0.175

@<SCITEGIC>MOL_PROPERTY
Angle
SciTegic.value.DoubleValue
1.195

@<SCITEGIC>MOL_PROPERTY
Pdih
SciTegic.value.DoubleValue
2.415

@<SCITEGIC>MOL_PROPERTY
Idih
SciTegic.value.DoubleValue
0.000

@<SCITEGIC>MOL_PROPERTY
Tether
SciTegic.value.DoubleValue
0.000

@<TRIPOS>MOLECULE
guest-s11_confgen4.mol2 : confsearch ligand conformer 313
          20          19           1
SMALL
USER_CHARGES
 
@<TRIPOS>ATOM
       1    N1      21.665887   20.694267   21.962867 N.4        1 MOL1        -0.5919
       2    H1      22.487942   21.197160   22.313531 H          1 MOL1         0.3682
       3    H2      21.386336   21.154635   21.090964 H          1 MOL1         0.3682
       4    H3      20.911793   20.843142   22.638295 H          1 MOL1         0.3682
       5    C1      21.956391   19.220481   21.752785 C.3        1 MOL1         0.0252
       6    H4      22.304264   18.795396   22.698102 H          1 MOL1         0.0971
       7    H5      22.776331   19.157621   21.032155 H          1 MOL1         0.0971
       8    C2      20.758829   18.405340   21.220933 C.3        1 MOL1        -0.1369
       9    H6      20.238747   18.969235   20.435216 H          1 MOL1         0.0997
      10    H7      21.157862   17.506705   20.731956 H          1 MOL1         0.0997
      11    C3      19.756129   17.946650   22.310871 C.3        1 MOL1        -0.1329
      12    H8      20.281494   17.335280   23.057654 H          1 MOL1         0.0997
      13    H9      19.017804   17.283818   21.838632 H          1 MOL1         0.0997
      14    C4      19.009281   19.099732   23.021456 C.3        1 MOL1        -0.1305
      15    H10     19.712333   19.688092   23.624283 H          1 MOL1         0.0997
      16    H11     18.570743   19.777035   22.275208 H          1 MOL1         0.0997
      17    C5      17.893283   18.569145   23.946683 C.3        1 MOL1        -0.2320
      18    H12     17.379923   19.398555   24.450261 H          1 MOL1         0.1008
      19    H13     17.142431   18.005257   23.377935 H          1 MOL1         0.1008
      20    H14     18.303495   17.907484   24.720764 H          1 MOL1         0.1008
@<TRIPOS>BOND
    1     1     2    1
    2     1     3    1
    3     1     4    1
    4     1     5    1
    5     5     6    1
    6     5     7    1
    7     5     8    1
    8     8     9    1
    9     8    10    1
   10     8    11    1
   11    11    12    1
   12    11    13    1
   13    11    14    1
   14    14    15    1
   15    14    16    1
   16    14    17    1
   17    17    18    1
   18    17    19    1
   19    17    20    1
@<TRIPOS>SUBSTRUCTURE
       1 MOL1            1 RESIDUE      1      MOL     
@<SCITEGIC>MOL_PROPERTY
VConf Rank
SciTegic.value.IntegerValue
313

@<SCITEGIC>MOL_PROPERTY
Conf_Id
SciTegic.value.IntegerValue
69

@<SCITEGIC>MOL_PROPERTY
Delta U+W
SciTegic.value.DoubleValue
2.811

@<SCITEGIC>MOL_PROPERTY
U+W
SciTegic.value.DoubleValue
-8.967

@<SCITEGIC>MOL_PROPERTY
Grad RMS
SciTegic.value.DoubleValue
0.000000

@<SCITEGIC>MOL_PROPERTY
U
SciTegic.value.DoubleValue
49.216

@<SCITEGIC>MOL_PROPERTY
W
SciTegic.value.DoubleValue
-58.183

@<SCITEGIC>MOL_PROPERTY
W(PB)
SciTegic.value.DoubleValue
-60.064

@<SCITEGIC>MOL_PROPERTY
W(SA)
SciTegic.value.DoubleValue
1.881

@<SCITEGIC>MOL_PROPERTY
Valence
SciTegic.value.DoubleValue
2.929

@<SCITEGIC>MOL_PROPERTY
Coulomb
SciTegic.value.DoubleValue
46.006

@<SCITEGIC>MOL_PROPERTY
VdW
SciTegic.value.DoubleValue
0.281

@<SCITEGIC>MOL_PROPERTY
VdW6
SciTegic.value.DoubleValue
-4.909

@<SCITEGIC>MOL_PROPERTY
VdW12
SciTegic.value.DoubleValue
5.190

@<SCITEGIC>MOL_PROPERTY
Bond
SciTegic.value.DoubleValue
0.156

@<SCITEGIC>MOL_PROPERTY
Angle
SciTegic.value.DoubleValue
0.974

@<SCITEGIC>MOL_PROPERTY
Pdih
SciTegic.value.DoubleValue
1.799

@<SCITEGIC>MOL_PROPERTY
Idih
SciTegic.value.DoubleValue
0.000

@<SCITEGIC>MOL_PROPERTY
Tether
SciTegic.value.DoubleValue
0.000

@<TRIPOS>MOLECULE
guest-s11_confgen4.mol2 : confsearch ligand conformer 314
          20          19           1
SMALL
USER_CHARGES
 
@<TRIPOS>ATOM
       1    N1      19.095551   21.013766   23.368811 N.4        1 MOL1        -0.5919
       2    H1      19.634401   21.082982   22.501701 H          1 MOL1         0.3682
       3    H2      18.104000   21.014818   23.109720 H          1 MOL1         0.3682
       4    H3      19.264766   21.875604   23.898191 H          1 MOL1         0.3682
       5    C1      19.466305   19.780445   24.170078 C.3        1 MOL1         0.0252
       6    H4      18.855972   19.795301   25.077178 H          1 MOL1         0.0971
       7    H5      20.515355   19.860171   24.467531 H          1 MOL1         0.0971
       8    C2      19.231336   18.446630   23.430345 C.3        1 MOL1        -0.1369
       9    H6      19.132259   17.657980   24.188029 H          1 MOL1         0.0997
      10    H7      18.270942   18.475030   22.898696 H          1 MOL1         0.0997
      11    C3      20.372058   18.035523   22.464158 C.3        1 MOL1        -0.1329
      12    H8      20.153692   17.026617   22.087456 H          1 MOL1         0.0997
      13    H9      21.314431   17.955045   23.023551 H          1 MOL1         0.0997
      14    C4      20.566724   18.986581   21.260038 C.3        1 MOL1        -0.1305
      15    H10     19.603630   19.156919   20.758662 H          1 MOL1         0.0997
      16    H11     20.932480   19.961442   21.606043 H          1 MOL1         0.0997
      17    C5      21.577409   18.415649   20.242407 C.3        1 MOL1        -0.2320
      18    H12     21.232098   17.455235   19.837947 H          1 MOL1         0.1008
      19    H13     21.711413   19.106216   19.399667 H          1 MOL1         0.1008
      20    H14     22.559250   18.257431   20.707408 H          1 MOL1         0.1008
@<TRIPOS>BOND
    1     1     2    1
    2     1     3    1
    3     1     4    1
    4     1     5    1
    5     5     6    1
    6     5     7    1
    7     5     8    1
    8     8     9    1
    9     8    10    1
   10     8    11    1
   11    11    12    1
   12    11    13    1
   13    11    14    1
   14    14    15    1
   15    14    16    1
   16    14    17    1
   17    17    18    1
   18    17    19    1
   19    17    20    1
@<TRIPOS>SUBSTRUCTURE
       1 MOL1            1 RESIDUE      1      MOL     
@<SCITEGIC>MOL_PROPERTY
VConf Rank
SciTegic.value.IntegerValue
314

@<SCITEGIC>MOL_PROPERTY
Conf_Id
SciTegic.value.IntegerValue
26

@<SCITEGIC>MOL_PROPERTY
Delta U+W
SciTegic.value.DoubleValue
2.809

@<SCITEGIC>MOL_PROPERTY
U+W
SciTegic.value.DoubleValue
-8.969

@<SCITEGIC>MOL_PROPERTY
Grad RMS
SciTegic.value.DoubleValue
0.000000

@<SCITEGIC>MOL_PROPERTY
U
SciTegic.value.DoubleValue
49.216

@<SCITEGIC>MOL_PROPERTY
W
SciTegic.value.DoubleValue
-58.185

@<SCITEGIC>MOL_PROPERTY
W(PB)
SciTegic.value.DoubleValue
-60.088

@<SCITEGIC>MOL_PROPERTY
W(SA)
SciTegic.value.DoubleValue
1.903

@<SCITEGIC>MOL_PROPERTY
Valence
SciTegic.value.DoubleValue
2.929

@<SCITEGIC>MOL_PROPERTY
Coulomb
SciTegic.value.DoubleValue
46.006

@<SCITEGIC>MOL_PROPERTY
VdW
SciTegic.value.DoubleValue
0.281

@<SCITEGIC>MOL_PROPERTY
VdW6
SciTegic.value.DoubleValue
-4.909

@<SCITEGIC>MOL_PROPERTY
VdW12
SciTegic.value.DoubleValue
5.190

@<SCITEGIC>MOL_PROPERTY
Bond
SciTegic.value.DoubleValue
0.156

@<SCITEGIC>MOL_PROPERTY
Angle
SciTegic.value.DoubleValue
0.974

@<SCITEGIC>MOL_PROPERTY
Pdih
SciTegic.value.DoubleValue
1.799

@<SCITEGIC>MOL_PROPERTY
Idih
SciTegic.value.DoubleValue
0.000

@<SCITEGIC>MOL_PROPERTY
Tether
SciTegic.value.DoubleValue
0.000

@<TRIPOS>MOLECULE
guest-s11_confgen4.mol2 : confsearch ligand conformer 315
          20          19           1
SMALL
USER_CHARGES
 
@<TRIPOS>ATOM
       1    N1      20.413545   20.830233   24.204243 N.4        1 MOL1        -0.5919
       2    H1      20.505595   21.316871   23.307779 H          1 MOL1         0.3682
       3    H2      19.565003   21.185352   24.655801 H          1 MOL1         0.3682
       4    H3      21.205611   21.120869   24.786885 H          1 MOL1         0.3682
       5    C1      20.368553   19.325442   24.023748 C.3        1 MOL1         0.0252
       6    H4      20.301720   18.872775   25.016791 H          1 MOL1         0.0971
       7    H5      21.311371   19.009170   23.569879 H          1 MOL1         0.0971
       8    C2      19.187072   18.840079   23.159561 C.3        1 MOL1        -0.1369
       9    H6      19.186755   17.742664   23.145029 H          1 MOL1         0.0997
      10    H7      18.245116   19.133290   23.641624 H          1 MOL1         0.0997
      11    C3      19.205936   19.380100   21.705252 C.3        1 MOL1        -0.1329
      12    H8      19.041657   20.465937   21.718591 H          1 MOL1         0.0997
      13    H9      18.350793   18.957332   21.160094 H          1 MOL1         0.0997
      14    C4      20.505929   19.078666   20.916462 C.3        1 MOL1        -0.1305
      15    H10     20.419134   19.522384   19.914748 H          1 MOL1         0.0997
      16    H11     21.363111   19.574022   21.392232 H          1 MOL1         0.0997
      17    C5      20.796500   17.567918   20.767956 C.3        1 MOL1        -0.2320
      18    H12     19.946904   17.045705   20.309215 H          1 MOL1         0.1008
      19    H13     21.674312   17.406152   20.129080 H          1 MOL1         0.1008
      20    H14     21.004252   17.100431   21.738470 H          1 MOL1         0.1008
@<TRIPOS>BOND
    1     1     2    1
    2     1     3    1
    3     1     4    1
    4     1     5    1
    5     5     6    1
    6     5     7    1
    7     5     8    1
    8     8     9    1
    9     8    10    1
   10     8    11    1
   11    11    12    1
   12    11    13    1
   13    11    14    1
   14    14    15    1
   15    14    16    1
   16    14    17    1
   17    17    18    1
   18    17    19    1
   19    17    20    1
@<TRIPOS>SUBSTRUCTURE
       1 MOL1            1 RESIDUE      1      MOL     
@<SCITEGIC>MOL_PROPERTY
VConf Rank
SciTegic.value.IntegerValue
315

@<SCITEGIC>MOL_PROPERTY
Conf_Id
SciTegic.value.IntegerValue
2

@<SCITEGIC>MOL_PROPERTY
Delta U+W
SciTegic.value.DoubleValue
0.994

@<SCITEGIC>MOL_PROPERTY
U+W
SciTegic.value.DoubleValue
-10.784

@<SCITEGIC>MOL_PROPERTY
Grad RMS
SciTegic.value.DoubleValue
0.000000

@<SCITEGIC>MOL_PROPERTY
U
SciTegic.value.DoubleValue
47.562

@<SCITEGIC>MOL_PROPERTY
W
SciTegic.value.DoubleValue
-58.346

@<SCITEGIC>MOL_PROPERTY
W(PB)
SciTegic.value.DoubleValue
-60.221

@<SCITEGIC>MOL_PROPERTY
W(SA)
SciTegic.value.DoubleValue
1.875

@<SCITEGIC>MOL_PROPERTY
Valence
SciTegic.value.DoubleValue
2.149

@<SCITEGIC>MOL_PROPERTY
Coulomb
SciTegic.value.DoubleValue
45.034

@<SCITEGIC>MOL_PROPERTY
VdW
SciTegic.value.DoubleValue
0.378

@<SCITEGIC>MOL_PROPERTY
VdW6
SciTegic.value.DoubleValue
-5.599

@<SCITEGIC>MOL_PROPERTY
VdW12
SciTegic.value.DoubleValue
5.977

@<SCITEGIC>MOL_PROPERTY
Bond
SciTegic.value.DoubleValue
0.185

@<SCITEGIC>MOL_PROPERTY
Angle
SciTegic.value.DoubleValue
0.935

@<SCITEGIC>MOL_PROPERTY
Pdih
SciTegic.value.DoubleValue
1.028

@<SCITEGIC>MOL_PROPERTY
Idih
SciTegic.value.DoubleValue
0.000

@<SCITEGIC>MOL_PROPERTY
Tether
SciTegic.value.DoubleValue
0.000

@<TRIPOS>MOLECULE
guest-s11_confgen4.mol2 : confsearch ligand conformer 316
          20          19           1
SMALL
USER_CHARGES
 
@<TRIPOS>ATOM
       1    N1      20.304287   20.311279   20.383040 N.4        1 MOL1        -0.5919
       2    H1      19.614409   21.053952   20.232891 H          1 MOL1         0.3682
       3    H2      21.026486   20.689883   21.002740 H          1 MOL1         0.3682
       4    H3      20.749790   20.130276   19.477461 H          1 MOL1         0.3682
       5    C1      19.669815   19.060544   20.959323 C.3        1 MOL1         0.0252
       6    H4      20.449103   18.301053   21.063326 H          1 MOL1         0.0971
       7    H5      18.935540   18.695962   20.235839 H          1 MOL1         0.0971
       8    C2      18.979319   19.286417   22.319647 C.3        1 MOL1        -0.1369
       9    H6      18.176571   20.025421   22.196735 H          1 MOL1         0.0997
      10    H7      18.484657   18.355251   22.624233 H          1 MOL1         0.0997
      11    C3      19.939382   19.757753   23.443531 C.3        1 MOL1        -0.1329
      12    H8      19.368387   19.859061   24.376751 H          1 MOL1         0.0997
      13    H9      20.305966   20.766171   23.209188 H          1 MOL1         0.0997
      14    C4      21.153969   18.827591   23.693759 C.3        1 MOL1        -0.1305
      15    H10     21.793094   18.788066   22.801316 H          1 MOL1         0.0997
      16    H11     21.773253   19.265785   24.488946 H          1 MOL1         0.0997
      17    C5      20.752843   17.393772   24.108608 C.3        1 MOL1        -0.2320
      18    H12     20.228248   16.872013   23.298565 H          1 MOL1         0.1008
      19    H13     21.643151   16.802814   24.359621 H          1 MOL1         0.1008
      20    H14     20.098943   17.406212   24.990208 H          1 MOL1         0.1008
@<TRIPOS>BOND
    1     1     2    1
    2     1     3    1
    3     1     4    1
    4     1     5    1
    5     5     6    1
    6     5     7    1
    7     5     8    1
    8     8     9    1
    9     8    10    1
   10     8    11    1
   11    11    12    1
   12    11    13    1
   13    11    14    1
   14    14    15    1
   15    14    16    1
   16    14    17    1
   17    17    18    1
   18    17    19    1
   19    17    20    1
@<TRIPOS>SUBSTRUCTURE
       1 MOL1            1 RESIDUE      1      MOL     
@<SCITEGIC>MOL_PROPERTY
VConf Rank
SciTegic.value.IntegerValue
316

@<SCITEGIC>MOL_PROPERTY
Conf_Id
SciTegic.value.IntegerValue
1

@<SCITEGIC>MOL_PROPERTY
Delta U+W
SciTegic.value.DoubleValue
1.032

@<SCITEGIC>MOL_PROPERTY
U+W
SciTegic.value.DoubleValue
-10.746

@<SCITEGIC>MOL_PROPERTY
Grad RMS
SciTegic.value.DoubleValue
0.000000

@<SCITEGIC>MOL_PROPERTY
U
SciTegic.value.DoubleValue
47.562

@<SCITEGIC>MOL_PROPERTY
W
SciTegic.value.DoubleValue
-58.308

@<SCITEGIC>MOL_PROPERTY
W(PB)
SciTegic.value.DoubleValue
-60.184

@<SCITEGIC>MOL_PROPERTY
W(SA)
SciTegic.value.DoubleValue
1.877

@<SCITEGIC>MOL_PROPERTY
Valence
SciTegic.value.DoubleValue
2.149

@<SCITEGIC>MOL_PROPERTY
Coulomb
SciTegic.value.DoubleValue
45.035

@<SCITEGIC>MOL_PROPERTY
VdW
SciTegic.value.DoubleValue
0.378

@<SCITEGIC>MOL_PROPERTY
VdW6
SciTegic.value.DoubleValue
-5.599

@<SCITEGIC>MOL_PROPERTY
VdW12
SciTegic.value.DoubleValue
5.978

@<SCITEGIC>MOL_PROPERTY
Bond
SciTegic.value.DoubleValue
0.185

@<SCITEGIC>MOL_PROPERTY
Angle
SciTegic.value.DoubleValue
0.935

@<SCITEGIC>MOL_PROPERTY
Pdih
SciTegic.value.DoubleValue
1.028

@<SCITEGIC>MOL_PROPERTY
Idih
SciTegic.value.DoubleValue
0.000

@<SCITEGIC>MOL_PROPERTY
Tether
SciTegic.value.DoubleValue
0.000

@<TRIPOS>MOLECULE
guest-s11_confgen4.mol2 : confsearch ligand conformer 317
          20          19           1
SMALL
USER_CHARGES
 
@<TRIPOS>ATOM
       1    N1      19.543505   17.358663   23.857406 N.4        1 MOL1        -0.5919
       2    H1      19.082319   16.550324   23.428471 H          1 MOL1         0.3682
       3    H2      20.548982   17.256531   23.692272 H          1 MOL1         0.3682
       4    H3      19.397171   17.282924   24.869431 H          1 MOL1         0.3682
       5    C1      19.012377   18.668654   23.308242 C.3        1 MOL1         0.0252
       6    H4      19.521538   19.481982   23.827638 H          1 MOL1         0.0971
       7    H5      17.949539   18.722999   23.559134 H          1 MOL1         0.0971
       8    C2      19.179800   18.818202   21.781048 C.3        1 MOL1        -0.1369
       9    H6      18.663420   17.977999   21.298109 H          1 MOL1         0.0997
      10    H7      18.658307   19.724179   21.445088 H          1 MOL1         0.0997
      11    C3      20.651908   18.852254   21.289049 C.3        1 MOL1        -0.1329
      12    H8      20.661693   18.540758   20.235342 H          1 MOL1         0.0997
      13    H9      21.255217   18.104707   21.820006 H          1 MOL1         0.0997
      14    C4      21.338678   20.240121   21.367803 C.3        1 MOL1        -0.1305
      15    H10     22.334345   20.158055   20.909698 H          1 MOL1         0.0997
      16    H11     20.782902   20.964008   20.755526 H          1 MOL1         0.0997
      17    C5      21.502085   20.796684   22.799399 C.3        1 MOL1        -0.2320
      18    H12     21.952392   20.051891   23.468179 H          1 MOL1         0.1008
      19    H13     22.154373   21.679530   22.793624 H          1 MOL1         0.1008
      20    H14     20.538738   21.110294   23.218523 H          1 MOL1         0.1008
@<TRIPOS>BOND
    1     1     2    1
    2     1     3    1
    3     1     4    1
    4     1     5    1
    5     5     6    1
    6     5     7    1
    7     5     8    1
    8     8     9    1
    9     8    10    1
   10     8    11    1
   11    11    12    1
   12    11    13    1
   13    11    14    1
   14    14    15    1
   15    14    16    1
   16    14    17    1
   17    17    18    1
   18    17    19    1
   19    17    20    1
@<TRIPOS>SUBSTRUCTURE
       1 MOL1            1 RESIDUE      1      MOL     
@<SCITEGIC>MOL_PROPERTY
VConf Rank
SciTegic.value.IntegerValue
317

@<SCITEGIC>MOL_PROPERTY
Conf_Id
SciTegic.value.IntegerValue
80

@<SCITEGIC>MOL_PROPERTY
Delta U+W
SciTegic.value.DoubleValue
2.920

@<SCITEGIC>MOL_PROPERTY
U+W
SciTegic.value.DoubleValue
-8.857

@<SCITEGIC>MOL_PROPERTY
Grad RMS
SciTegic.value.DoubleValue
0.000000

@<SCITEGIC>MOL_PROPERTY
U
SciTegic.value.DoubleValue
49.434

@<SCITEGIC>MOL_PROPERTY
W
SciTegic.value.DoubleValue
-58.292

@<SCITEGIC>MOL_PROPERTY
W(PB)
SciTegic.value.DoubleValue
-60.170

@<SCITEGIC>MOL_PROPERTY
W(SA)
SciTegic.value.DoubleValue
1.879

@<SCITEGIC>MOL_PROPERTY
Valence
SciTegic.value.DoubleValue
3.798

@<SCITEGIC>MOL_PROPERTY
Coulomb
SciTegic.value.DoubleValue
45.253

@<SCITEGIC>MOL_PROPERTY
VdW
SciTegic.value.DoubleValue
0.384

@<SCITEGIC>MOL_PROPERTY
VdW6
SciTegic.value.DoubleValue
-5.595

@<SCITEGIC>MOL_PROPERTY
VdW12
SciTegic.value.DoubleValue
5.979

@<SCITEGIC>MOL_PROPERTY
Bond
SciTegic.value.DoubleValue
0.198

@<SCITEGIC>MOL_PROPERTY
Angle
SciTegic.value.DoubleValue
1.368

@<SCITEGIC>MOL_PROPERTY
Pdih
SciTegic.value.DoubleValue
2.231

@<SCITEGIC>MOL_PROPERTY
Idih
SciTegic.value.DoubleValue
0.000

@<SCITEGIC>MOL_PROPERTY
Tether
SciTegic.value.DoubleValue
0.000

@<TRIPOS>MOLECULE
guest-s11_confgen4.mol2 : confsearch ligand conformer 318
          20          19           1
SMALL
USER_CHARGES
 
@<TRIPOS>ATOM
       1    N1      19.508890   21.257891   23.348607 N.4        1 MOL1        -0.5919
       2    H1      19.715870   22.109816   22.818067 H          1 MOL1         0.3682
       3    H2      18.831065   21.515555   24.073527 H          1 MOL1         0.3682
       4    H3      20.370605   20.983462   23.829048 H          1 MOL1         0.3682
       5    C1      18.984302   20.150216   22.455510 C.3        1 MOL1         0.0252
       6    H4      18.047247   20.500381   22.014108 H          1 MOL1         0.0971
       7    H5      18.756822   19.289311   23.086074 H          1 MOL1         0.0971
       8    C2      19.955929   19.747132   21.325823 C.3        1 MOL1        -0.1369
       9    H6      19.455655   19.040034   20.651021 H          1 MOL1         0.0997
      10    H7      20.165964   20.640377   20.722650 H          1 MOL1         0.0997
      11    C3      21.300637   19.141331   21.810684 C.3        1 MOL1        -0.1329
      12    H8      21.688709   19.699592   22.672348 H          1 MOL1         0.0997
      13    H9      22.041536   19.284640   21.011963 H          1 MOL1         0.0997
      14    C4      21.258691   17.626058   22.136616 C.3        1 MOL1        -0.1305
      15    H10     20.961518   17.062372   21.241223 H          1 MOL1         0.0997
      16    H11     22.279652   17.297010   22.376021 H          1 MOL1         0.0997
      17    C5      20.332739   17.246535   23.313264 C.3        1 MOL1        -0.2320
      18    H12     19.276053   17.343940   23.037620 H          1 MOL1         0.1008
      19    H13     20.495189   16.200856   23.604975 H          1 MOL1         0.1008
      20    H14     20.527455   17.873738   24.192731 H          1 MOL1         0.1008
@<TRIPOS>BOND
    1     1     2    1
    2     1     3    1
    3     1     4    1
    4     1     5    1
    5     5     6    1
    6     5     7    1
    7     5     8    1
    8     8     9    1
    9     8    10    1
   10     8    11    1
   11    11    12    1
   12    11    13    1
   13    11    14    1
   14    14    15    1
   15    14    16    1
   16    14    17    1
   17    17    18    1
   18    17    19    1
   19    17    20    1
@<TRIPOS>SUBSTRUCTURE
       1 MOL1            1 RESIDUE      1      MOL     
@<SCITEGIC>MOL_PROPERTY
VConf Rank
SciTegic.value.IntegerValue
318

@<SCITEGIC>MOL_PROPERTY
Conf_Id
SciTegic.value.IntegerValue
65

@<SCITEGIC>MOL_PROPERTY
Delta U+W
SciTegic.value.DoubleValue
2.949

@<SCITEGIC>MOL_PROPERTY
U+W
SciTegic.value.DoubleValue
-8.829

@<SCITEGIC>MOL_PROPERTY
Grad RMS
SciTegic.value.DoubleValue
0.000000

@<SCITEGIC>MOL_PROPERTY
U
SciTegic.value.DoubleValue
49.435

@<SCITEGIC>MOL_PROPERTY
W
SciTegic.value.DoubleValue
-58.263

@<SCITEGIC>MOL_PROPERTY
W(PB)
SciTegic.value.DoubleValue
-60.125

@<SCITEGIC>MOL_PROPERTY
W(SA)
SciTegic.value.DoubleValue
1.862

@<SCITEGIC>MOL_PROPERTY
Valence
SciTegic.value.DoubleValue
3.797

@<SCITEGIC>MOL_PROPERTY
Coulomb
SciTegic.value.DoubleValue
45.253

@<SCITEGIC>MOL_PROPERTY
VdW
SciTegic.value.DoubleValue
0.384

@<SCITEGIC>MOL_PROPERTY
VdW6
SciTegic.value.DoubleValue
-5.596

@<SCITEGIC>MOL_PROPERTY
VdW12
SciTegic.value.DoubleValue
5.980

@<SCITEGIC>MOL_PROPERTY
Bond
SciTegic.value.DoubleValue
0.198

@<SCITEGIC>MOL_PROPERTY
Angle
SciTegic.value.DoubleValue
1.369

@<SCITEGIC>MOL_PROPERTY
Pdih
SciTegic.value.DoubleValue
2.230

@<SCITEGIC>MOL_PROPERTY
Idih
SciTegic.value.DoubleValue
0.000

@<SCITEGIC>MOL_PROPERTY
Tether
SciTegic.value.DoubleValue
0.000

@<TRIPOS>MOLECULE
guest-s11_confgen4.mol2 : confsearch ligand conformer 319
          20          19           1
SMALL
USER_CHARGES
 
@<TRIPOS>ATOM
       1    N1      21.397975   20.687211   22.108000 N.4        1 MOL1        -0.5919
       2    H1      21.520917   21.670997   22.370170 H          1 MOL1         0.3682
       3    H2      21.423005   20.135278   22.970825 H          1 MOL1         0.3682
       4    H3      22.217487   20.422202   21.552503 H          1 MOL1         0.3682
       5    C1      20.105952   20.464142   21.346113 C.3        1 MOL1         0.0252
       6    H4      20.156214   21.080780   20.444586 H          1 MOL1         0.0971
       7    H5      19.272623   20.822714   21.956185 H          1 MOL1         0.0971
       8    C2      19.863855   18.996415   20.939199 C.3        1 MOL1        -0.1369
       9    H6      19.179385   18.996918   20.080531 H          1 MOL1         0.0997
      10    H7      20.799630   18.552564   20.574329 H          1 MOL1         0.0997
      11    C3      19.239675   18.098937   22.041375 C.3        1 MOL1        -0.1329
      12    H8      19.073064   17.106142   21.600781 H          1 MOL1         0.0997
      13    H9      18.241203   18.472613   22.307620 H          1 MOL1         0.0997
      14    C4      20.098220   17.918516   23.319213 C.3        1 MOL1        -0.1305
      15    H10     19.957364   16.894721   23.693728 H          1 MOL1         0.0997
      16    H11     21.166823   18.000209   23.079053 H          1 MOL1         0.0997
      17    C5      19.709850   18.894633   24.455075 C.3        1 MOL1        -0.2320
      18    H12     19.754535   19.942922   24.140927 H          1 MOL1         0.1008
      19    H13     18.686038   18.698237   24.799402 H          1 MOL1         0.1008
      20    H14     20.377611   18.770069   25.317490 H          1 MOL1         0.1008
@<TRIPOS>BOND
    1     1     2    1
    2     1     3    1
    3     1     4    1
    4     1     5    1
    5     5     6    1
    6     5     7    1
    7     5     8    1
    8     8     9    1
    9     8    10    1
   10     8    11    1
   11    11    12    1
   12    11    13    1
   13    11    14    1
   14    14    15    1
   15    14    16    1
   16    14    17    1
   17    17    18    1
   18    17    19    1
   19    17    20    1
@<TRIPOS>SUBSTRUCTURE
       1 MOL1            1 RESIDUE      1      MOL     
@<SCITEGIC>MOL_PROPERTY
VConf Rank
SciTegic.value.IntegerValue
319

@<SCITEGIC>MOL_PROPERTY
Conf_Id
SciTegic.value.IntegerValue
77

@<SCITEGIC>MOL_PROPERTY
Delta U+W
SciTegic.value.DoubleValue
5.366

@<SCITEGIC>MOL_PROPERTY
U+W
SciTegic.value.DoubleValue
-6.412

@<SCITEGIC>MOL_PROPERTY
Grad RMS
SciTegic.value.DoubleValue
0.000000

@<SCITEGIC>MOL_PROPERTY
U
SciTegic.value.DoubleValue
51.542

@<SCITEGIC>MOL_PROPERTY
W
SciTegic.value.DoubleValue
-57.954

@<SCITEGIC>MOL_PROPERTY
W(PB)
SciTegic.value.DoubleValue
-59.811

@<SCITEGIC>MOL_PROPERTY
W(SA)
SciTegic.value.DoubleValue
1.857

@<SCITEGIC>MOL_PROPERTY
Valence
SciTegic.value.DoubleValue
5.347

@<SCITEGIC>MOL_PROPERTY
Coulomb
SciTegic.value.DoubleValue
45.870

@<SCITEGIC>MOL_PROPERTY
VdW
SciTegic.value.DoubleValue
0.325

@<SCITEGIC>MOL_PROPERTY
VdW6
SciTegic.value.DoubleValue
-6.161

@<SCITEGIC>MOL_PROPERTY
VdW12
SciTegic.value.DoubleValue
6.486

@<SCITEGIC>MOL_PROPERTY
Bond
SciTegic.value.DoubleValue
0.201

@<SCITEGIC>MOL_PROPERTY
Angle
SciTegic.value.DoubleValue
1.484

@<SCITEGIC>MOL_PROPERTY
Pdih
SciTegic.value.DoubleValue
3.662

@<SCITEGIC>MOL_PROPERTY
Idih
SciTegic.value.DoubleValue
0.000

@<SCITEGIC>MOL_PROPERTY
Tether
SciTegic.value.DoubleValue
0.000

@<TRIPOS>MOLECULE
guest-s11_confgen4.mol2 : confsearch ligand conformer 320
          20          19           1
SMALL
USER_CHARGES
 
@<TRIPOS>ATOM
       1    N1      19.629569   17.555519   23.631348 N.4        1 MOL1        -0.5919
       2    H1      19.772613   17.715273   24.633557 H          1 MOL1         0.3682
       3    H2      18.975586   18.270702   23.298864 H          1 MOL1         0.3682
       4    H3      19.163231   16.646969   23.537811 H          1 MOL1         0.3682
       5    C1      20.935889   17.600392   22.862534 C.3        1 MOL1         0.0252
       6    H4      20.734929   17.359813   21.815186 H          1 MOL1         0.0971
       7    H5      21.575876   16.815190   23.274110 H          1 MOL1         0.0971
       8    C2      21.672816   18.951802   22.957608 C.3        1 MOL1        -0.1369
       9    H6      21.629817   19.326979   23.988725 H          1 MOL1         0.0997
      10    H7      22.735512   18.767436   22.751456 H          1 MOL1         0.0997
      11    C3      21.181655   20.043829   21.969630 C.3        1 MOL1        -0.1329
      12    H8      21.352331   19.716534   20.934636 H          1 MOL1         0.0997
      13    H9      21.824088   20.924526   22.108114 H          1 MOL1         0.0997
      14    C4      19.708723   20.491640   22.149789 C.3        1 MOL1        -0.1305
      15    H10     19.398219   20.379431   23.197290 H          1 MOL1         0.0997
      16    H11     19.641488   21.567705   21.935723 H          1 MOL1         0.0997
      17    C5      18.730498   19.759218   21.200867 C.3        1 MOL1        -0.2320
      18    H12     17.695401   20.065611   21.400560 H          1 MOL1         0.1008
      19    H13     18.951367   20.005405   20.153999 H          1 MOL1         0.1008
      20    H14     18.786266   18.669894   21.300152 H          1 MOL1         0.1008
@<TRIPOS>BOND
    1     1     2    1
    2     1     3    1
    3     1     4    1
    4     1     5    1
    5     5     6    1
    6     5     7    1
    7     5     8    1
    8     8     9    1
    9     8    10    1
   10     8    11    1
   11    11    12    1
   12    11    13    1
   13    11    14    1
   14    14    15    1
   15    14    16    1
   16    14    17    1
   17    17    18    1
   18    17    19    1
   19    17    20    1
@<TRIPOS>SUBSTRUCTURE
       1 MOL1            1 RESIDUE      1      MOL     
@<SCITEGIC>MOL_PROPERTY
VConf Rank
SciTegic.value.IntegerValue
320

@<SCITEGIC>MOL_PROPERTY
Conf_Id
SciTegic.value.IntegerValue
67

@<SCITEGIC>MOL_PROPERTY
Delta U+W
SciTegic.value.DoubleValue
5.353

@<SCITEGIC>MOL_PROPERTY
U+W
SciTegic.value.DoubleValue
-6.425

@<SCITEGIC>MOL_PROPERTY
Grad RMS
SciTegic.value.DoubleValue
0.000000

@<SCITEGIC>MOL_PROPERTY
U
SciTegic.value.DoubleValue
51.541

@<SCITEGIC>MOL_PROPERTY
W
SciTegic.value.DoubleValue
-57.966

@<SCITEGIC>MOL_PROPERTY
W(PB)
SciTegic.value.DoubleValue
-59.821

@<SCITEGIC>MOL_PROPERTY
W(SA)
SciTegic.value.DoubleValue
1.855

@<SCITEGIC>MOL_PROPERTY
Valence
SciTegic.value.DoubleValue
5.347

@<SCITEGIC>MOL_PROPERTY
Coulomb
SciTegic.value.DoubleValue
45.870

@<SCITEGIC>MOL_PROPERTY
VdW
SciTegic.value.DoubleValue
0.325

@<SCITEGIC>MOL_PROPERTY
VdW6
SciTegic.value.DoubleValue
-6.161

@<SCITEGIC>MOL_PROPERTY
VdW12
SciTegic.value.DoubleValue
6.486

@<SCITEGIC>MOL_PROPERTY
Bond
SciTegic.value.DoubleValue
0.201

@<SCITEGIC>MOL_PROPERTY
Angle
SciTegic.value.DoubleValue
1.485

@<SCITEGIC>MOL_PROPERTY
Pdih
SciTegic.value.DoubleValue
3.662

@<SCITEGIC>MOL_PROPERTY
Idih
SciTegic.value.DoubleValue
0.000

@<SCITEGIC>MOL_PROPERTY
Tether
SciTegic.value.DoubleValue
0.000

@<TRIPOS>MOLECULE
guest-s11_confgen4.mol2 : confsearch ligand conformer 321
          20          19           1
SMALL
USER_CHARGES
 
@<TRIPOS>ATOM
       1    N1      19.302452   16.331305   23.805881 N.4        1 MOL1        -0.5919
       2    H1      18.911404   15.885343   22.970067 H          1 MOL1         0.3682
       3    H2      19.753372   15.591245   24.354135 H          1 MOL1         0.3682
       4    H3      18.512630   16.673624   24.362106 H          1 MOL1         0.3682
       5    C1      20.271770   17.441949   23.454626 C.3        1 MOL1         0.0252
       6    H4      21.099176   17.002152   22.891160 H          1 MOL1         0.0971
       7    H5      20.670343   17.849684   24.387583 H          1 MOL1         0.0971
       8    C2      19.626030   18.570277   22.630514 C.3        1 MOL1        -0.1369
       9    H6      19.213098   18.153668   21.702078 H          1 MOL1         0.0997
      10    H7      18.785733   18.998293   23.193338 H          1 MOL1         0.0997
      11    C3      20.646272   19.680520   22.294066 C.3        1 MOL1        -0.1329
      12    H8      21.488094   19.247838   21.735575 H          1 MOL1         0.0997
      13    H9      21.061184   20.091517   23.225045 H          1 MOL1         0.0997
      14    C4      20.008889   20.819089   21.466455 C.3        1 MOL1        -0.1305
      15    H10     19.594364   20.412603   20.533188 H          1 MOL1         0.0997
      16    H11     19.167582   21.256232   22.022474 H          1 MOL1         0.0997
      17    C5      21.031859   21.925915   21.132619 C.3        1 MOL1        -0.2320
      18    H12     21.869406   21.525950   20.546312 H          1 MOL1         0.1008
      19    H13     20.560942   22.724717   20.545085 H          1 MOL1         0.1008
      20    H14     21.439193   22.376265   22.047211 H          1 MOL1         0.1008
@<TRIPOS>BOND
    1     1     2    1
    2     1     3    1
    3     1     4    1
    4     1     5    1
    5     5     6    1
    6     5     7    1
    7     5     8    1
    8     8     9    1
    9     8    10    1
   10     8    11    1
   11    11    12    1
   12    11    13    1
   13    11    14    1
   14    14    15    1
   15    14    16    1
   16    14    17    1
   17    17    18    1
   18    17    19    1
   19    17    20    1
@<TRIPOS>SUBSTRUCTURE
       1 MOL1            1 RESIDUE      1      MOL     
@<SCITEGIC>MOL_PROPERTY
VConf Rank
SciTegic.value.IntegerValue
321

@<SCITEGIC>MOL_PROPERTY
Conf_Id
SciTegic.value.IntegerValue
72

@<SCITEGIC>MOL_PROPERTY
Delta U+W
SciTegic.value.DoubleValue
0.000

@<SCITEGIC>MOL_PROPERTY
U+W
SciTegic.value.DoubleValue
-11.778

@<SCITEGIC>MOL_PROPERTY
Grad RMS
SciTegic.value.DoubleValue
0.000000

@<SCITEGIC>MOL_PROPERTY
U
SciTegic.value.DoubleValue
45.772

@<SCITEGIC>MOL_PROPERTY
W
SciTegic.value.DoubleValue
-57.550

@<SCITEGIC>MOL_PROPERTY
W(PB)
SciTegic.value.DoubleValue
-59.511

@<SCITEGIC>MOL_PROPERTY
W(SA)
SciTegic.value.DoubleValue
1.961

@<SCITEGIC>MOL_PROPERTY
Valence
SciTegic.value.DoubleValue
1.299

@<SCITEGIC>MOL_PROPERTY
Coulomb
SciTegic.value.DoubleValue
44.177

@<SCITEGIC>MOL_PROPERTY
VdW
SciTegic.value.DoubleValue
0.297

@<SCITEGIC>MOL_PROPERTY
VdW6
SciTegic.value.DoubleValue
-3.490

@<SCITEGIC>MOL_PROPERTY
VdW12
SciTegic.value.DoubleValue
3.786

@<SCITEGIC>MOL_PROPERTY
Bond
SciTegic.value.DoubleValue
0.096

@<SCITEGIC>MOL_PROPERTY
Angle
SciTegic.value.DoubleValue
0.381

@<SCITEGIC>MOL_PROPERTY
Pdih
SciTegic.value.DoubleValue
0.822

@<SCITEGIC>MOL_PROPERTY
Idih
SciTegic.value.DoubleValue
0.000

@<SCITEGIC>MOL_PROPERTY
Tether
SciTegic.value.DoubleValue
0.000

@<TRIPOS>MOLECULE
guest-s11_confgen4.mol2 : confsearch ligand conformer 322
          20          19           1
SMALL
USER_CHARGES
 
@<TRIPOS>ATOM
       1    N1      23.069302   18.723766   22.558520 N.4        1 MOL1        -0.5919
       2    H1      22.952060   17.902088   23.159716 H          1 MOL1         0.3682
       3    H2      23.178992   18.381679   21.598673 H          1 MOL1         0.3682
       4    H3      23.959086   19.160208   22.821930 H          1 MOL1         0.3682
       5    C1      21.908747   19.689848   22.686482 C.3        1 MOL1         0.0252
       6    H4      22.114514   20.551154   22.045150 H          1 MOL1         0.0971
       7    H5      21.869832   20.035377   23.723112 H          1 MOL1         0.0971
       8    C2      20.556322   19.066113   22.297677 C.3        1 MOL1        -0.1369
       9    H6      20.605039   18.706219   21.261379 H          1 MOL1         0.0997
      10    H7      20.368675   18.192954   22.935211 H          1 MOL1         0.0997
      11    C3      19.402647   20.086730   22.440859 C.3        1 MOL1        -0.1329
      12    H8      19.645052   20.985000   21.855973 H          1 MOL1         0.0997
      13    H9      19.324106   20.412171   23.487524 H          1 MOL1         0.0997
      14    C4      18.033894   19.543059   21.963777 C.3        1 MOL1        -0.1305
      15    H10     17.298187   20.358724   22.000747 H          1 MOL1         0.0997
      16    H11     18.101524   19.238532   20.909943 H          1 MOL1         0.0997
      17    C5      17.511282   18.362240   22.813525 C.3        1 MOL1        -0.2320
      18    H12     17.460985   18.632010   23.876403 H          1 MOL1         0.1008
      19    H13     16.501539   18.075350   22.492485 H          1 MOL1         0.1008
      20    H14     18.152244   17.477676   22.712850 H          1 MOL1         0.1008
@<TRIPOS>BOND
    1     1     2    1
    2     1     3    1
    3     1     4    1
    4     1     5    1
    5     5     6    1
    6     5     7    1
    7     5     8    1
    8     8     9    1
    9     8    10    1
   10     8    11    1
   11    11    12    1
   12    11    13    1
   13    11    14    1
   14    14    15    1
   15    14    16    1
   16    14    17    1
   17    17    18    1
   18    17    19    1
   19    17    20    1
@<TRIPOS>SUBSTRUCTURE
       1 MOL1            1 RESIDUE      1      MOL     
@<SCITEGIC>MOL_PROPERTY
VConf Rank
SciTegic.value.IntegerValue
322

@<SCITEGIC>MOL_PROPERTY
Conf_Id
SciTegic.value.IntegerValue
42

@<SCITEGIC>MOL_PROPERTY
Delta U+W
SciTegic.value.DoubleValue
0.508

@<SCITEGIC>MOL_PROPERTY
U+W
SciTegic.value.DoubleValue
-11.270

@<SCITEGIC>MOL_PROPERTY
Grad RMS
SciTegic.value.DoubleValue
0.000000

@<SCITEGIC>MOL_PROPERTY
U
SciTegic.value.DoubleValue
46.486

@<SCITEGIC>MOL_PROPERTY
W
SciTegic.value.DoubleValue
-57.756

@<SCITEGIC>MOL_PROPERTY
W(PB)
SciTegic.value.DoubleValue
-59.705

@<SCITEGIC>MOL_PROPERTY
W(SA)
SciTegic.value.DoubleValue
1.949

@<SCITEGIC>MOL_PROPERTY
Valence
SciTegic.value.DoubleValue
1.806

@<SCITEGIC>MOL_PROPERTY
Coulomb
SciTegic.value.DoubleValue
44.248

@<SCITEGIC>MOL_PROPERTY
VdW
SciTegic.value.DoubleValue
0.433

@<SCITEGIC>MOL_PROPERTY
VdW6
SciTegic.value.DoubleValue
-4.089

@<SCITEGIC>MOL_PROPERTY
VdW12
SciTegic.value.DoubleValue
4.522

@<SCITEGIC>MOL_PROPERTY
Bond
SciTegic.value.DoubleValue
0.131

@<SCITEGIC>MOL_PROPERTY
Angle
SciTegic.value.DoubleValue
0.628

@<SCITEGIC>MOL_PROPERTY
Pdih
SciTegic.value.DoubleValue
1.047

@<SCITEGIC>MOL_PROPERTY
Idih
SciTegic.value.DoubleValue
0.000

@<SCITEGIC>MOL_PROPERTY
Tether
SciTegic.value.DoubleValue
0.000

@<TRIPOS>MOLECULE
guest-s11_confgen4.mol2 : confsearch ligand conformer 323
          20          19           1
SMALL
USER_CHARGES
 
@<TRIPOS>ATOM
       1    N1      18.926809   19.288840   19.751464 N.4        1 MOL1        -0.5919
       2    H1      19.147090   18.343559   19.422400 H          1 MOL1         0.3682
       3    H2      17.982345   19.257373   20.148114 H          1 MOL1         0.3682
       4    H3      18.880680   19.889207   18.921395 H          1 MOL1         0.3682
       5    C1      19.946042   19.791605   20.753947 C.3        1 MOL1         0.0252
       6    H4      19.666982   20.810132   21.037205 H          1 MOL1         0.0971
       7    H5      20.918973   19.828144   20.256389 H          1 MOL1         0.0971
       8    C2      20.041234   18.911794   22.013369 C.3        1 MOL1        -0.1369
       9    H6      19.055908   18.867861   22.494272 H          1 MOL1         0.0997
      10    H7      20.306058   17.886456   21.722919 H          1 MOL1         0.0997
      11    C3      21.093377   19.460085   23.006095 C.3        1 MOL1        -0.1329
      12    H8      20.804026   20.468703   23.332521 H          1 MOL1         0.0997
      13    H9      22.054706   19.568613   22.484740 H          1 MOL1         0.0997
      14    C4      21.304364   18.555809   24.244819 C.3        1 MOL1        -0.1305
      15    H10     21.617174   17.552329   23.923797 H          1 MOL1         0.0997
      16    H11     22.135344   18.960558   24.839453 H          1 MOL1         0.0997
      17    C5      20.053631   18.446686   25.146647 C.3        1 MOL1        -0.2320
      18    H12     19.229202   17.936440   24.633433 H          1 MOL1         0.1008
      19    H13     20.282888   17.872000   26.053360 H          1 MOL1         0.1008
      20    H14     19.703508   19.439221   25.458578 H          1 MOL1         0.1008
@<TRIPOS>BOND
    1     1     2    1
    2     1     3    1
    3     1     4    1
    4     1     5    1
    5     5     6    1
    6     5     7    1
    7     5     8    1
    8     8     9    1
    9     8    10    1
   10     8    11    1
   11    11    12    1
   12    11    13    1
   13    11    14    1
   14    14    15    1
   15    14    16    1
   16    14    17    1
   17    17    18    1
   18    17    19    1
   19    17    20    1
@<TRIPOS>SUBSTRUCTURE
       1 MOL1            1 RESIDUE      1      MOL     
@<SCITEGIC>MOL_PROPERTY
VConf Rank
SciTegic.value.IntegerValue
323

@<SCITEGIC>MOL_PROPERTY
Conf_Id
SciTegic.value.IntegerValue
41

@<SCITEGIC>MOL_PROPERTY
Delta U+W
SciTegic.value.DoubleValue
0.515

@<SCITEGIC>MOL_PROPERTY
U+W
SciTegic.value.DoubleValue
-11.263

@<SCITEGIC>MOL_PROPERTY
Grad RMS
SciTegic.value.DoubleValue
0.000000

@<SCITEGIC>MOL_PROPERTY
U
SciTegic.value.DoubleValue
46.486

@<SCITEGIC>MOL_PROPERTY
W
SciTegic.value.DoubleValue
-57.749

@<SCITEGIC>MOL_PROPERTY
W(PB)
SciTegic.value.DoubleValue
-59.685

@<SCITEGIC>MOL_PROPERTY
W(SA)
SciTegic.value.DoubleValue
1.936

@<SCITEGIC>MOL_PROPERTY
Valence
SciTegic.value.DoubleValue
1.806

@<SCITEGIC>MOL_PROPERTY
Coulomb
SciTegic.value.DoubleValue
44.248

@<SCITEGIC>MOL_PROPERTY
VdW
SciTegic.value.DoubleValue
0.433

@<SCITEGIC>MOL_PROPERTY
VdW6
SciTegic.value.DoubleValue
-4.089

@<SCITEGIC>MOL_PROPERTY
VdW12
SciTegic.value.DoubleValue
4.522

@<SCITEGIC>MOL_PROPERTY
Bond
SciTegic.value.DoubleValue
0.131

@<SCITEGIC>MOL_PROPERTY
Angle
SciTegic.value.DoubleValue
0.628

@<SCITEGIC>MOL_PROPERTY
Pdih
SciTegic.value.DoubleValue
1.047

@<SCITEGIC>MOL_PROPERTY
Idih
SciTegic.value.DoubleValue
0.000

@<SCITEGIC>MOL_PROPERTY
Tether
SciTegic.value.DoubleValue
0.000

@<TRIPOS>MOLECULE
guest-s11_confgen4.mol2 : confsearch ligand conformer 324
          20          19           1
SMALL
USER_CHARGES
 
@<TRIPOS>ATOM
       1    N1      21.427322   21.530332   22.951029 N.4        1 MOL1        -0.5919
       2    H1      21.414580   22.527355   23.190371 H          1 MOL1         0.3682
       3    H2      21.577255   21.016161   23.824005 H          1 MOL1         0.3682
       4    H3      22.252276   21.375879   22.362990 H          1 MOL1         0.3682
       5    C1      20.149479   21.102375   22.255232 C.3        1 MOL1         0.0252
       6    H4      20.036559   21.721971   21.361393 H          1 MOL1         0.0971
       7    H5      19.310764   21.314596   22.923783 H          1 MOL1         0.0971
       8    C2      20.126509   19.615330   21.850212 C.3        1 MOL1        -0.1369
       9    H6      19.220923   19.440416   21.256135 H          1 MOL1         0.0997
      10    H7      20.979729   19.401355   21.193005 H          1 MOL1         0.0997
      11    C3      20.143818   18.661973   23.071656 C.3        1 MOL1        -0.1329
      12    H8      19.275059   18.866497   23.712667 H          1 MOL1         0.0997
      13    H9      21.033184   18.866356   23.682281 H          1 MOL1         0.0997
      14    C4      20.158310   17.163211   22.683735 C.3        1 MOL1        -0.1305
      15    H10     21.033237   16.950587   22.053530 H          1 MOL1         0.0997
      16    H11     20.285312   16.564539   23.596644 H          1 MOL1         0.0997
      17    C5      18.872187   16.700525   21.961534 C.3        1 MOL1        -0.2320
      18    H12     18.764370   17.180209   20.980949 H          1 MOL1         0.1008
      19    H13     18.894070   15.615582   21.796105 H          1 MOL1         0.1008
      20    H14     17.979588   16.930502   22.557673 H          1 MOL1         0.1008
@<TRIPOS>BOND
    1     1     2    1
    2     1     3    1
    3     1     4    1
    4     1     5    1
    5     5     6    1
    6     5     7    1
    7     5     8    1
    8     8     9    1
    9     8    10    1
   10     8    11    1
   11    11    12    1
   12    11    13    1
   13    11    14    1
   14    14    15    1
   15    14    16    1
   16    14    17    1
   17    17    18    1
   18    17    19    1
   19    17    20    1
@<TRIPOS>SUBSTRUCTURE
       1 MOL1            1 RESIDUE      1      MOL     
@<SCITEGIC>MOL_PROPERTY
VConf Rank
SciTegic.value.IntegerValue
324

@<SCITEGIC>MOL_PROPERTY
Conf_Id
SciTegic.value.IntegerValue
33

@<SCITEGIC>MOL_PROPERTY
Delta U+W
SciTegic.value.DoubleValue
0.703

@<SCITEGIC>MOL_PROPERTY
U+W
SciTegic.value.DoubleValue
-11.075

@<SCITEGIC>MOL_PROPERTY
Grad RMS
SciTegic.value.DoubleValue
0.000000

@<SCITEGIC>MOL_PROPERTY
U
SciTegic.value.DoubleValue
47.080

@<SCITEGIC>MOL_PROPERTY
W
SciTegic.value.DoubleValue
-58.154

@<SCITEGIC>MOL_PROPERTY
W(PB)
SciTegic.value.DoubleValue
-60.053

@<SCITEGIC>MOL_PROPERTY
W(SA)
SciTegic.value.DoubleValue
1.899

@<SCITEGIC>MOL_PROPERTY
Valence
SciTegic.value.DoubleValue
1.943

@<SCITEGIC>MOL_PROPERTY
Coulomb
SciTegic.value.DoubleValue
44.572

@<SCITEGIC>MOL_PROPERTY
VdW
SciTegic.value.DoubleValue
0.565

@<SCITEGIC>MOL_PROPERTY
VdW6
SciTegic.value.DoubleValue
-4.575

@<SCITEGIC>MOL_PROPERTY
VdW12
SciTegic.value.DoubleValue
5.139

@<SCITEGIC>MOL_PROPERTY
Bond
SciTegic.value.DoubleValue
0.158

@<SCITEGIC>MOL_PROPERTY
Angle
SciTegic.value.DoubleValue
0.700

@<SCITEGIC>MOL_PROPERTY
Pdih
SciTegic.value.DoubleValue
1.085

@<SCITEGIC>MOL_PROPERTY
Idih
SciTegic.value.DoubleValue
0.000

@<SCITEGIC>MOL_PROPERTY
Tether
SciTegic.value.DoubleValue
0.000

@<TRIPOS>MOLECULE
guest-s11_confgen4.mol2 : confsearch ligand conformer 325
          20          19           1
SMALL
USER_CHARGES
 
@<TRIPOS>ATOM
       1    N1      18.937594   21.308729   21.271284 N.4        1 MOL1        -0.5919
       2    H1      18.638871   21.834265   20.442988 H          1 MOL1         0.3682
       3    H2      18.276909   21.534604   22.021397 H          1 MOL1         0.3682
       4    H3      19.849832   21.682739   21.548551 H          1 MOL1         0.3682
       5    C1      18.996577   19.817641   21.000473 C.3        1 MOL1         0.0252
       6    H4      19.697901   19.648723   20.178857 H          1 MOL1         0.0971
       7    H5      18.003277   19.502429   20.669419 H          1 MOL1         0.0971
       8    C2      19.416718   18.976901   22.222152 C.3        1 MOL1        -0.1369
       9    H6      18.720783   19.161884   23.051095 H          1 MOL1         0.0997
      10    H7      19.313245   17.917704   21.955687 H          1 MOL1         0.0997
      11    C3      20.870805   19.263516   22.674481 C.3        1 MOL1        -0.1329
      12    H8      20.978077   20.331685   22.904950 H          1 MOL1         0.0997
      13    H9      21.563313   19.054687   21.847262 H          1 MOL1         0.0997
      14    C4      21.298737   18.454623   23.923297 C.3        1 MOL1        -0.1305
      15    H10     22.292492   18.799083   24.242267 H          1 MOL1         0.0997
      16    H11     20.616997   18.670522   24.757854 H          1 MOL1         0.0997
      17    C5      21.356528   16.929089   23.680050 C.3        1 MOL1        -0.2320
      18    H12     22.007712   16.688807   22.829621 H          1 MOL1         0.1008
      19    H13     21.755852   16.414417   24.563566 H          1 MOL1         0.1008
      20    H14     20.361232   16.513688   23.479802 H          1 MOL1         0.1008
@<TRIPOS>BOND
    1     1     2    1
    2     1     3    1
    3     1     4    1
    4     1     5    1
    5     5     6    1
    6     5     7    1
    7     5     8    1
    8     8     9    1
    9     8    10    1
   10     8    11    1
   11    11    12    1
   12    11    13    1
   13    11    14    1
   14    14    15    1
   15    14    16    1
   16    14    17    1
   17    17    18    1
   18    17    19    1
   19    17    20    1
@<TRIPOS>SUBSTRUCTURE
       1 MOL1            1 RESIDUE      1      MOL     
@<SCITEGIC>MOL_PROPERTY
VConf Rank
SciTegic.value.IntegerValue
325

@<SCITEGIC>MOL_PROPERTY
Conf_Id
SciTegic.value.IntegerValue
24

@<SCITEGIC>MOL_PROPERTY
Delta U+W
SciTegic.value.DoubleValue
0.847

@<SCITEGIC>MOL_PROPERTY
U+W
SciTegic.value.DoubleValue
-10.931

@<SCITEGIC>MOL_PROPERTY
Grad RMS
SciTegic.value.DoubleValue
0.000000

@<SCITEGIC>MOL_PROPERTY
U
SciTegic.value.DoubleValue
47.080

@<SCITEGIC>MOL_PROPERTY
W
SciTegic.value.DoubleValue
-58.011

@<SCITEGIC>MOL_PROPERTY
W(PB)
SciTegic.value.DoubleValue
-59.914

@<SCITEGIC>MOL_PROPERTY
W(SA)
SciTegic.value.DoubleValue
1.903

@<SCITEGIC>MOL_PROPERTY
Valence
SciTegic.value.DoubleValue
1.943

@<SCITEGIC>MOL_PROPERTY
Coulomb
SciTegic.value.DoubleValue
44.572

@<SCITEGIC>MOL_PROPERTY
VdW
SciTegic.value.DoubleValue
0.565

@<SCITEGIC>MOL_PROPERTY
VdW6
SciTegic.value.DoubleValue
-4.575

@<SCITEGIC>MOL_PROPERTY
VdW12
SciTegic.value.DoubleValue
5.140

@<SCITEGIC>MOL_PROPERTY
Bond
SciTegic.value.DoubleValue
0.158

@<SCITEGIC>MOL_PROPERTY
Angle
SciTegic.value.DoubleValue
0.700

@<SCITEGIC>MOL_PROPERTY
Pdih
SciTegic.value.DoubleValue
1.085

@<SCITEGIC>MOL_PROPERTY
Idih
SciTegic.value.DoubleValue
0.000

@<SCITEGIC>MOL_PROPERTY
Tether
SciTegic.value.DoubleValue
0.000

@<TRIPOS>MOLECULE
guest-s11_confgen4.mol2 : confsearch ligand conformer 326
          20          19           1
SMALL
USER_CHARGES
 
@<TRIPOS>ATOM
       1    N1      21.846655   20.981210   23.699683 N.4        1 MOL1        -0.5919
       2    H1      22.860802   20.881852   23.814241 H          1 MOL1         0.3682
       3    H2      21.697527   21.672007   22.957536 H          1 MOL1         0.3682
       4    H3      21.488402   21.390257   24.568386 H          1 MOL1         0.3682
       5    C1      21.183283   19.656291   23.382105 C.3        1 MOL1         0.0252
       6    H4      21.406631   18.962468   24.197030 H          1 MOL1         0.0971
       7    H5      21.633505   19.266556   22.465377 H          1 MOL1         0.0971
       8    C2      19.657695   19.770812   23.202965 C.3        1 MOL1        -0.1369
       9    H6      19.220680   20.201786   24.113481 H          1 MOL1         0.0997
      10    H7      19.432189   20.474061   22.391151 H          1 MOL1         0.0997
      11    C3      18.982719   18.404705   22.923406 C.3        1 MOL1        -0.1329
      12    H8      17.899657   18.557289   22.818721 H          1 MOL1         0.0997
      13    H9      19.112826   17.756498   23.801127 H          1 MOL1         0.0997
      14    C4      19.513153   17.660741   21.671056 C.3        1 MOL1        -0.1305
      15    H10     20.573354   17.404735   21.802252 H          1 MOL1         0.0997
      16    H11     18.981272   16.703192   21.581134 H          1 MOL1         0.0997
      17    C5      19.329251   18.457262   20.359285 C.3        1 MOL1        -0.2320
      18    H12     19.633470   17.851571   19.495866 H          1 MOL1         0.1008
      19    H13     18.279402   18.743577   20.215003 H          1 MOL1         0.1008
      20    H14     19.938809   19.369422   20.353107 H          1 MOL1         0.1008
@<TRIPOS>BOND
    1     1     2    1
    2     1     3    1
    3     1     4    1
    4     1     5    1
    5     5     6    1
    6     5     7    1
    7     5     8    1
    8     8     9    1
    9     8    10    1
   10     8    11    1
   11    11    12    1
   12    11    13    1
   13    11    14    1
   14    14    15    1
   15    14    16    1
   16    14    17    1
   17    17    18    1
   18    17    19    1
   19    17    20    1
@<TRIPOS>SUBSTRUCTURE
       1 MOL1            1 RESIDUE      1      MOL     
@<SCITEGIC>MOL_PROPERTY
VConf Rank
SciTegic.value.IntegerValue
326

@<SCITEGIC>MOL_PROPERTY
Conf_Id
SciTegic.value.IntegerValue
64

@<SCITEGIC>MOL_PROPERTY
Delta U+W
SciTegic.value.DoubleValue
0.707

@<SCITEGIC>MOL_PROPERTY
U+W
SciTegic.value.DoubleValue
-11.070

@<SCITEGIC>MOL_PROPERTY
Grad RMS
SciTegic.value.DoubleValue
0.000000

@<SCITEGIC>MOL_PROPERTY
U
SciTegic.value.DoubleValue
47.077

@<SCITEGIC>MOL_PROPERTY
W
SciTegic.value.DoubleValue
-58.148

@<SCITEGIC>MOL_PROPERTY
W(PB)
SciTegic.value.DoubleValue
-60.054

@<SCITEGIC>MOL_PROPERTY
W(SA)
SciTegic.value.DoubleValue
1.906

@<SCITEGIC>MOL_PROPERTY
Valence
SciTegic.value.DoubleValue
2.039

@<SCITEGIC>MOL_PROPERTY
Coulomb
SciTegic.value.DoubleValue
44.655

@<SCITEGIC>MOL_PROPERTY
VdW
SciTegic.value.DoubleValue
0.383

@<SCITEGIC>MOL_PROPERTY
VdW6
SciTegic.value.DoubleValue
-4.912

@<SCITEGIC>MOL_PROPERTY
VdW12
SciTegic.value.DoubleValue
5.295

@<SCITEGIC>MOL_PROPERTY
Bond
SciTegic.value.DoubleValue
0.159

@<SCITEGIC>MOL_PROPERTY
Angle
SciTegic.value.DoubleValue
0.856

@<SCITEGIC>MOL_PROPERTY
Pdih
SciTegic.value.DoubleValue
1.024

@<SCITEGIC>MOL_PROPERTY
Idih
SciTegic.value.DoubleValue
0.000

@<SCITEGIC>MOL_PROPERTY
Tether
SciTegic.value.DoubleValue
0.000

@<TRIPOS>MOLECULE
guest-s11_confgen4.mol2 : confsearch ligand conformer 327
          20          19           1
SMALL
USER_CHARGES
 
@<TRIPOS>ATOM
       1    N1      17.546148   18.393448   22.283220 N.4        1 MOL1        -0.5919
       2    H1      17.353394   17.623779   21.634557 H          1 MOL1         0.3682
       3    H2      17.544833   17.998057   23.228676 H          1 MOL1         0.3682
       4    H3      16.748356   19.035299   22.228050 H          1 MOL1         0.3682
       5    C1      18.852926   19.090381   21.962376 C.3        1 MOL1         0.0252
       6    H4      18.977173   19.913636   22.670754 H          1 MOL1         0.0971
       7    H5      18.773567   19.511136   20.956371 H          1 MOL1         0.0971
       8    C2      20.072957   18.153051   22.036914 C.3        1 MOL1        -0.1369
       9    H6      20.148225   17.722997   23.043813 H          1 MOL1         0.0997
      10    H7      19.919022   17.308344   21.352419 H          1 MOL1         0.0997
      11    C3      21.398224   18.863186   21.663589 C.3        1 MOL1        -0.1329
      12    H8      21.350782   19.176340   20.611364 H          1 MOL1         0.0997
      13    H9      22.220961   18.137584   21.725792 H          1 MOL1         0.0997
      14    C4      21.743675   20.097182   22.536023 C.3        1 MOL1        -0.1305
      15    H10     22.686639   20.529665   22.173175 H          1 MOL1         0.0997
      16    H11     20.983796   20.879579   22.404823 H          1 MOL1         0.0997
      17    C5      21.893908   19.765190   24.038095 C.3        1 MOL1        -0.2320
      18    H12     22.634143   18.969879   24.194645 H          1 MOL1         0.1008
      19    H13     22.228632   20.649486   24.595666 H          1 MOL1         0.1008
      20    H14     20.941859   19.440413   24.475999 H          1 MOL1         0.1008
@<TRIPOS>BOND
    1     1     2    1
    2     1     3    1
    3     1     4    1
    4     1     5    1
    5     5     6    1
    6     5     7    1
    7     5     8    1
    8     8     9    1
    9     8    10    1
   10     8    11    1
   11    11    12    1
   12    11    13    1
   13    11    14    1
   14    14    15    1
   15    14    16    1
   16    14    17    1
   17    17    18    1
   18    17    19    1
   19    17    20    1
@<TRIPOS>SUBSTRUCTURE
       1 MOL1            1 RESIDUE      1      MOL     
@<SCITEGIC>MOL_PROPERTY
VConf Rank
SciTegic.value.IntegerValue
327

@<SCITEGIC>MOL_PROPERTY
Conf_Id
SciTegic.value.IntegerValue
22

@<SCITEGIC>MOL_PROPERTY
Delta U+W
SciTegic.value.DoubleValue
0.731

@<SCITEGIC>MOL_PROPERTY
U+W
SciTegic.value.DoubleValue
-11.047

@<SCITEGIC>MOL_PROPERTY
Grad RMS
SciTegic.value.DoubleValue
0.000000

@<SCITEGIC>MOL_PROPERTY
U
SciTegic.value.DoubleValue
47.078

@<SCITEGIC>MOL_PROPERTY
W
SciTegic.value.DoubleValue
-58.125

@<SCITEGIC>MOL_PROPERTY
W(PB)
SciTegic.value.DoubleValue
-60.031

@<SCITEGIC>MOL_PROPERTY
W(SA)
SciTegic.value.DoubleValue
1.906

@<SCITEGIC>MOL_PROPERTY
Valence
SciTegic.value.DoubleValue
2.039

@<SCITEGIC>MOL_PROPERTY
Coulomb
SciTegic.value.DoubleValue
44.655

@<SCITEGIC>MOL_PROPERTY
VdW
SciTegic.value.DoubleValue
0.383

@<SCITEGIC>MOL_PROPERTY
VdW6
SciTegic.value.DoubleValue
-4.913

@<SCITEGIC>MOL_PROPERTY
VdW12
SciTegic.value.DoubleValue
5.296

@<SCITEGIC>MOL_PROPERTY
Bond
SciTegic.value.DoubleValue
0.159

@<SCITEGIC>MOL_PROPERTY
Angle
SciTegic.value.DoubleValue
0.856

@<SCITEGIC>MOL_PROPERTY
Pdih
SciTegic.value.DoubleValue
1.024

@<SCITEGIC>MOL_PROPERTY
Idih
SciTegic.value.DoubleValue
0.000

@<SCITEGIC>MOL_PROPERTY
Tether
SciTegic.value.DoubleValue
0.000

@<TRIPOS>MOLECULE
guest-s11_confgen4.mol2 : confsearch ligand conformer 328
          20          19           1
SMALL
USER_CHARGES
 
@<TRIPOS>ATOM
       1    N1      21.698958   17.458914   23.972674 N.4        1 MOL1        -0.5919
       2    H1      22.609658   17.928911   23.980572 H          1 MOL1         0.3682
       3    H2      21.390627   17.383478   24.947124 H          1 MOL1         0.3682
       4    H3      21.860306   16.503387   23.637370 H          1 MOL1         0.3682
       5    C1      20.689427   18.194362   23.114435 C.3        1 MOL1         0.0252
       6    H4      19.755232   17.626510   23.129200 H          1 MOL1         0.0971
       7    H5      21.071783   18.208361   22.091266 H          1 MOL1         0.0971
       8    C2      20.428947   19.635145   23.588743 C.3        1 MOL1        -0.1369
       9    H6      20.161136   19.613295   24.653507 H          1 MOL1         0.0997
      10    H7      21.356722   20.217814   23.514468 H          1 MOL1         0.0997
      11    C3      19.297831   20.357043   22.813276 C.3        1 MOL1        -0.1329
      12    H8      19.139750   21.332820   23.293299 H          1 MOL1         0.0997
      13    H9      18.350816   19.812209   22.930186 H          1 MOL1         0.0997
      14    C4      19.591081   20.604556   21.310634 C.3        1 MOL1        -0.1305
      15    H10     19.039484   21.501327   20.994965 H          1 MOL1         0.0997
      16    H11     20.654876   20.837573   21.163041 H          1 MOL1         0.0997
      17    C5      19.164301   19.438472   20.388168 C.3        1 MOL1        -0.2320
      18    H12     19.737811   18.525579   20.579445 H          1 MOL1         0.1008
      19    H13     18.099339   19.204899   20.515849 H          1 MOL1         0.1008
      20    H14     19.320520   19.707957   19.335572 H          1 MOL1         0.1008
@<TRIPOS>BOND
    1     1     2    1
    2     1     3    1
    3     1     4    1
    4     1     5    1
    5     5     6    1
    6     5     7    1
    7     5     8    1
    8     8     9    1
    9     8    10    1
   10     8    11    1
   11    11    12    1
   12    11    13    1
   13    11    14    1
   14    14    15    1
   15    14    16    1
   16    14    17    1
   17    17    18    1
   18    17    19    1
   19    17    20    1
@<TRIPOS>SUBSTRUCTURE
       1 MOL1            1 RESIDUE      1      MOL     
@<SCITEGIC>MOL_PROPERTY
VConf Rank
SciTegic.value.IntegerValue
328

@<SCITEGIC>MOL_PROPERTY
Conf_Id
SciTegic.value.IntegerValue
61

@<SCITEGIC>MOL_PROPERTY
Delta U+W
SciTegic.value.DoubleValue
2.669

@<SCITEGIC>MOL_PROPERTY
U+W
SciTegic.value.DoubleValue
-9.108

@<SCITEGIC>MOL_PROPERTY
Grad RMS
SciTegic.value.DoubleValue
0.000000

@<SCITEGIC>MOL_PROPERTY
U
SciTegic.value.DoubleValue
48.916

@<SCITEGIC>MOL_PROPERTY
W
SciTegic.value.DoubleValue
-58.025

@<SCITEGIC>MOL_PROPERTY
W(PB)
SciTegic.value.DoubleValue
-59.935

@<SCITEGIC>MOL_PROPERTY
W(SA)
SciTegic.value.DoubleValue
1.911

@<SCITEGIC>MOL_PROPERTY
Valence
SciTegic.value.DoubleValue
3.785

@<SCITEGIC>MOL_PROPERTY
Coulomb
SciTegic.value.DoubleValue
44.716

@<SCITEGIC>MOL_PROPERTY
VdW
SciTegic.value.DoubleValue
0.415

@<SCITEGIC>MOL_PROPERTY
VdW6
SciTegic.value.DoubleValue
-4.836

@<SCITEGIC>MOL_PROPERTY
VdW12
SciTegic.value.DoubleValue
5.251

@<SCITEGIC>MOL_PROPERTY
Bond
SciTegic.value.DoubleValue
0.175

@<SCITEGIC>MOL_PROPERTY
Angle
SciTegic.value.DoubleValue
1.195

@<SCITEGIC>MOL_PROPERTY
Pdih
SciTegic.value.DoubleValue
2.415

@<SCITEGIC>MOL_PROPERTY
Idih
SciTegic.value.DoubleValue
0.000

@<SCITEGIC>MOL_PROPERTY
Tether
SciTegic.value.DoubleValue
0.000

@<TRIPOS>MOLECULE
guest-s11_confgen4.mol2 : confsearch ligand conformer 329
          20          19           1
SMALL
USER_CHARGES
 
@<TRIPOS>ATOM
       1    N1      20.864796   20.323426   24.187800 N.4        1 MOL1        -0.5919
       2    H1      21.599491   20.435134   24.894472 H          1 MOL1         0.3682
       3    H2      20.145077   21.022904   24.395254 H          1 MOL1         0.3682
       4    H3      20.442988   19.402980   24.335720 H          1 MOL1         0.3682
       5    C1      21.410418   20.477846   22.781022 C.3        1 MOL1         0.0252
       6    H4      22.210996   19.747641   22.635375 H          1 MOL1         0.0971
       7    H5      21.849352   21.477320   22.718185 H          1 MOL1         0.0971
       8    C2      20.352646   20.324687   21.667859 C.3        1 MOL1        -0.1369
       9    H6      19.431102   20.851460   21.949076 H          1 MOL1         0.0997
      10    H7      20.731844   20.838418   20.774461 H          1 MOL1         0.0997
      11    C3      20.038443   18.858339   21.274324 C.3        1 MOL1        -0.1329
      12    H8      20.960819   18.363269   20.940268 H          1 MOL1         0.0997
      13    H9      19.368218   18.874415   20.403680 H          1 MOL1         0.0997
      14    C4      19.380304   18.020303   22.395422 C.3        1 MOL1        -0.1305
      15    H10     20.092189   17.864353   23.215636 H          1 MOL1         0.0997
      16    H11     18.517297   18.560981   22.808735 H          1 MOL1         0.0997
      17    C5      18.917843   16.641577   21.877481 C.3        1 MOL1        -0.2320
      18    H12     18.462236   16.056142   22.686641 H          1 MOL1         0.1008
      19    H13     18.171796   16.748588   21.079243 H          1 MOL1         0.1008
      20    H14     19.763441   16.065245   21.479896 H          1 MOL1         0.1008
@<TRIPOS>BOND
    1     1     2    1
    2     1     3    1
    3     1     4    1
    4     1     5    1
    5     5     6    1
    6     5     7    1
    7     5     8    1
    8     8     9    1
    9     8    10    1
   10     8    11    1
   11    11    12    1
   12    11    13    1
   13    11    14    1
   14    14    15    1
   15    14    16    1
   16    14    17    1
   17    17    18    1
   18    17    19    1
   19    17    20    1
@<TRIPOS>SUBSTRUCTURE
       1 MOL1            1 RESIDUE      1      MOL     
@<SCITEGIC>MOL_PROPERTY
VConf Rank
SciTegic.value.IntegerValue
329

@<SCITEGIC>MOL_PROPERTY
Conf_Id
SciTegic.value.IntegerValue
69

@<SCITEGIC>MOL_PROPERTY
Delta U+W
SciTegic.value.DoubleValue
2.811

@<SCITEGIC>MOL_PROPERTY
U+W
SciTegic.value.DoubleValue
-8.967

@<SCITEGIC>MOL_PROPERTY
Grad RMS
SciTegic.value.DoubleValue
0.000000

@<SCITEGIC>MOL_PROPERTY
U
SciTegic.value.DoubleValue
49.216

@<SCITEGIC>MOL_PROPERTY
W
SciTegic.value.DoubleValue
-58.183

@<SCITEGIC>MOL_PROPERTY
W(PB)
SciTegic.value.DoubleValue
-60.064

@<SCITEGIC>MOL_PROPERTY
W(SA)
SciTegic.value.DoubleValue
1.881

@<SCITEGIC>MOL_PROPERTY
Valence
SciTegic.value.DoubleValue
2.929

@<SCITEGIC>MOL_PROPERTY
Coulomb
SciTegic.value.DoubleValue
46.006

@<SCITEGIC>MOL_PROPERTY
VdW
SciTegic.value.DoubleValue
0.281

@<SCITEGIC>MOL_PROPERTY
VdW6
SciTegic.value.DoubleValue
-4.909

@<SCITEGIC>MOL_PROPERTY
VdW12
SciTegic.value.DoubleValue
5.190

@<SCITEGIC>MOL_PROPERTY
Bond
SciTegic.value.DoubleValue
0.156

@<SCITEGIC>MOL_PROPERTY
Angle
SciTegic.value.DoubleValue
0.974

@<SCITEGIC>MOL_PROPERTY
Pdih
SciTegic.value.DoubleValue
1.799

@<SCITEGIC>MOL_PROPERTY
Idih
SciTegic.value.DoubleValue
0.000

@<SCITEGIC>MOL_PROPERTY
Tether
SciTegic.value.DoubleValue
0.000

@<TRIPOS>MOLECULE
guest-s11_confgen4.mol2 : confsearch ligand conformer 330
          20          19           1
SMALL
USER_CHARGES
 
@<TRIPOS>ATOM
       1    N1      18.762055   18.115061   20.868697 N.4        1 MOL1        -0.5919
       2    H1      19.083124   17.629326   21.710127 H          1 MOL1         0.3682
       3    H2      17.789481   18.393498   21.032638 H          1 MOL1         0.3682
       4    H3      18.749370   17.425879   20.109414 H          1 MOL1         0.3682
       5    C1      19.638964   19.305895   20.531782 C.3        1 MOL1         0.0252
       6    H4      19.232471   19.752252   19.620143 H          1 MOL1         0.0971
       7    H5      20.647097   18.945159   20.310697 H          1 MOL1         0.0971
       8    C2      19.698352   20.384478   21.633875 C.3        1 MOL1        -0.1369
       9    H6      19.990884   21.330541   21.159258 H          1 MOL1         0.0997
      10    H7      18.696090   20.553912   22.049299 H          1 MOL1         0.0997
      11    C3      20.711705   20.090474   22.769854 C.3        1 MOL1        -0.1329
      12    H8      20.752439   20.969954   23.427376 H          1 MOL1         0.0997
      13    H9      21.718474   19.981545   22.343222 H          1 MOL1         0.0997
      14    C4      20.375510   18.844769   23.622792 C.3        1 MOL1        -0.1305
      15    H10     19.332169   18.896114   23.964472 H          1 MOL1         0.0997
      16    H11     20.477129   17.935602   23.017035 H          1 MOL1         0.0997
      17    C5      21.307843   18.725927   24.847394 C.3        1 MOL1        -0.2320
      18    H12     21.210020   19.599176   25.505489 H          1 MOL1         0.1008
      19    H13     21.062704   17.832518   25.436274 H          1 MOL1         0.1008
      20    H14     22.358190   18.647303   24.537781 H          1 MOL1         0.1008
@<TRIPOS>BOND
    1     1     2    1
    2     1     3    1
    3     1     4    1
    4     1     5    1
    5     5     6    1
    6     5     7    1
    7     5     8    1
    8     8     9    1
    9     8    10    1
   10     8    11    1
   11    11    12    1
   12    11    13    1
   13    11    14    1
   14    14    15    1
   15    14    16    1
   16    14    17    1
   17    17    18    1
   18    17    19    1
   19    17    20    1
@<TRIPOS>SUBSTRUCTURE
       1 MOL1            1 RESIDUE      1      MOL     
@<SCITEGIC>MOL_PROPERTY
VConf Rank
SciTegic.value.IntegerValue
330

@<SCITEGIC>MOL_PROPERTY
Conf_Id
SciTegic.value.IntegerValue
26

@<SCITEGIC>MOL_PROPERTY
Delta U+W
SciTegic.value.DoubleValue
2.809

@<SCITEGIC>MOL_PROPERTY
U+W
SciTegic.value.DoubleValue
-8.969

@<SCITEGIC>MOL_PROPERTY
Grad RMS
SciTegic.value.DoubleValue
0.000000

@<SCITEGIC>MOL_PROPERTY
U
SciTegic.value.DoubleValue
49.216

@<SCITEGIC>MOL_PROPERTY
W
SciTegic.value.DoubleValue
-58.185

@<SCITEGIC>MOL_PROPERTY
W(PB)
SciTegic.value.DoubleValue
-60.088

@<SCITEGIC>MOL_PROPERTY
W(SA)
SciTegic.value.DoubleValue
1.903

@<SCITEGIC>MOL_PROPERTY
Valence
SciTegic.value.DoubleValue
2.929

@<SCITEGIC>MOL_PROPERTY
Coulomb
SciTegic.value.DoubleValue
46.006

@<SCITEGIC>MOL_PROPERTY
VdW
SciTegic.value.DoubleValue
0.281

@<SCITEGIC>MOL_PROPERTY
VdW6
SciTegic.value.DoubleValue
-4.909

@<SCITEGIC>MOL_PROPERTY
VdW12
SciTegic.value.DoubleValue
5.190

@<SCITEGIC>MOL_PROPERTY
Bond
SciTegic.value.DoubleValue
0.156

@<SCITEGIC>MOL_PROPERTY
Angle
SciTegic.value.DoubleValue
0.974

@<SCITEGIC>MOL_PROPERTY
Pdih
SciTegic.value.DoubleValue
1.799

@<SCITEGIC>MOL_PROPERTY
Idih
SciTegic.value.DoubleValue
0.000

@<SCITEGIC>MOL_PROPERTY
Tether
SciTegic.value.DoubleValue
0.000

@<TRIPOS>MOLECULE
guest-s11_confgen4.mol2 : confsearch ligand conformer 331
          20          19           1
SMALL
USER_CHARGES
 
@<TRIPOS>ATOM
       1    N1      21.508194   21.137884   22.776716 N.4        1 MOL1        -0.5919
       2    H1      20.948476   21.023982   23.626822 H          1 MOL1         0.3682
       3    H2      22.487749   20.986283   23.036575 H          1 MOL1         0.3682
       4    H3      21.423806   22.118779   22.490304 H          1 MOL1         0.3682
       5    C1      21.062575   20.190017   21.680371 C.3        1 MOL1         0.0252
       6    H4      21.678545   20.387371   20.798815 H          1 MOL1         0.0971
       7    H5      20.025188   20.425246   21.428524 H          1 MOL1         0.0971
       8    C2      21.179601   18.700765   22.063422 C.3        1 MOL1        -0.1369
       9    H6      20.911803   18.089305   21.192255 H          1 MOL1         0.0997
      10    H7      22.230160   18.467375   22.281350 H          1 MOL1         0.0997
      11    C3      20.303413   18.290962   23.276414 C.3        1 MOL1        -0.1329
      12    H8      20.681849   18.784786   24.181472 H          1 MOL1         0.0997
      13    H9      20.425996   17.213475   23.453035 H          1 MOL1         0.0997
      14    C4      18.793740   18.608765   23.125025 C.3        1 MOL1        -0.1305
      15    H10     18.276327   18.298898   24.043784 H          1 MOL1         0.0997
      16    H11     18.639575   19.693238   23.043492 H          1 MOL1         0.0997
      17    C5      18.135732   17.899078   21.919947 C.3        1 MOL1        -0.2320
      18    H12     18.289910   16.813351   21.968812 H          1 MOL1         0.1008
      19    H13     17.053823   18.084084   21.908558 H          1 MOL1         0.1008
      20    H14     18.542409   18.261751   20.967747 H          1 MOL1         0.1008
@<TRIPOS>BOND
    1     1     2    1
    2     1     3    1
    3     1     4    1
    4     1     5    1
    5     5     6    1
    6     5     7    1
    7     5     8    1
    8     8     9    1
    9     8    10    1
   10     8    11    1
   11    11    12    1
   12    11    13    1
   13    11    14    1
   14    14    15    1
   15    14    16    1
   16    14    17    1
   17    17    18    1
   18    17    19    1
   19    17    20    1
@<TRIPOS>SUBSTRUCTURE
       1 MOL1            1 RESIDUE      1      MOL     
@<SCITEGIC>MOL_PROPERTY
VConf Rank
SciTegic.value.IntegerValue
331

@<SCITEGIC>MOL_PROPERTY
Conf_Id
SciTegic.value.IntegerValue
2

@<SCITEGIC>MOL_PROPERTY
Delta U+W
SciTegic.value.DoubleValue
0.994

@<SCITEGIC>MOL_PROPERTY
U+W
SciTegic.value.DoubleValue
-10.784

@<SCITEGIC>MOL_PROPERTY
Grad RMS
SciTegic.value.DoubleValue
0.000000

@<SCITEGIC>MOL_PROPERTY
U
SciTegic.value.DoubleValue
47.562

@<SCITEGIC>MOL_PROPERTY
W
SciTegic.value.DoubleValue
-58.346

@<SCITEGIC>MOL_PROPERTY
W(PB)
SciTegic.value.DoubleValue
-60.221

@<SCITEGIC>MOL_PROPERTY
W(SA)
SciTegic.value.DoubleValue
1.875

@<SCITEGIC>MOL_PROPERTY
Valence
SciTegic.value.DoubleValue
2.149

@<SCITEGIC>MOL_PROPERTY
Coulomb
SciTegic.value.DoubleValue
45.034

@<SCITEGIC>MOL_PROPERTY
VdW
SciTegic.value.DoubleValue
0.378

@<SCITEGIC>MOL_PROPERTY
VdW6
SciTegic.value.DoubleValue
-5.599

@<SCITEGIC>MOL_PROPERTY
VdW12
SciTegic.value.DoubleValue
5.977

@<SCITEGIC>MOL_PROPERTY
Bond
SciTegic.value.DoubleValue
0.185

@<SCITEGIC>MOL_PROPERTY
Angle
SciTegic.value.DoubleValue
0.935

@<SCITEGIC>MOL_PROPERTY
Pdih
SciTegic.value.DoubleValue
1.028

@<SCITEGIC>MOL_PROPERTY
Idih
SciTegic.value.DoubleValue
0.000

@<SCITEGIC>MOL_PROPERTY
Tether
SciTegic.value.DoubleValue
0.000

@<TRIPOS>MOLECULE
guest-s11_confgen4.mol2 : confsearch ligand conformer 332
          20          19           1
SMALL
USER_CHARGES
 
@<TRIPOS>ATOM
       1    N1      21.778750   18.551469   20.733438 N.4        1 MOL1        -0.5919
       2    H1      22.673970   18.152021   21.031867 H          1 MOL1         0.3682
       3    H2      21.089692   17.793876   20.747313 H          1 MOL1         0.3682
       4    H3      21.891037   18.837945   19.755362 H          1 MOL1         0.3682
       5    C1      21.356437   19.710219   21.615451 C.3        1 MOL1         0.0252
       6    H4      20.416602   20.109484   21.225283 H          1 MOL1         0.0971
       7    H5      22.118078   20.489852   21.528368 H          1 MOL1         0.0971
       8    C2      21.182605   19.328134   23.099391 C.3        1 MOL1        -0.1369
       9    H6      22.140556   18.960475   23.490282 H          1 MOL1         0.0997
      10    H7      20.953382   20.234889   23.673661 H          1 MOL1         0.0997
      11    C3      20.085093   18.260895   23.351308 C.3        1 MOL1        -0.1329
      12    H8      20.010911   18.078493   24.432246 H          1 MOL1         0.0997
      13    H9      20.399196   17.305410   22.910180 H          1 MOL1         0.0997
      14    C4      18.682133   18.629240   22.804444 C.3        1 MOL1        -0.1305
      15    H10     18.712599   18.721986   21.710385 H          1 MOL1         0.0997
      16    H11     17.993739   17.799475   23.017641 H          1 MOL1         0.0997
      17    C5      18.105314   19.924724   23.419132 C.3        1 MOL1        -0.2320
      18    H12     18.698677   20.803308   23.136975 H          1 MOL1         0.1008
      19    H13     17.078987   20.093066   23.068131 H          1 MOL1         0.1008
      20    H14     18.079452   19.864311   24.514869 H          1 MOL1         0.1008
@<TRIPOS>BOND
    1     1     2    1
    2     1     3    1
    3     1     4    1
    4     1     5    1
    5     5     6    1
    6     5     7    1
    7     5     8    1
    8     8     9    1
    9     8    10    1
   10     8    11    1
   11    11    12    1
   12    11    13    1
   13    11    14    1
   14    14    15    1
   15    14    16    1
   16    14    17    1
   17    17    18    1
   18    17    19    1
   19    17    20    1
@<TRIPOS>SUBSTRUCTURE
       1 MOL1            1 RESIDUE      1      MOL     
@<SCITEGIC>MOL_PROPERTY
VConf Rank
SciTegic.value.IntegerValue
332

@<SCITEGIC>MOL_PROPERTY
Conf_Id
SciTegic.value.IntegerValue
1

@<SCITEGIC>MOL_PROPERTY
Delta U+W
SciTegic.value.DoubleValue
1.032

@<SCITEGIC>MOL_PROPERTY
U+W
SciTegic.value.DoubleValue
-10.746

@<SCITEGIC>MOL_PROPERTY
Grad RMS
SciTegic.value.DoubleValue
0.000000

@<SCITEGIC>MOL_PROPERTY
U
SciTegic.value.DoubleValue
47.562

@<SCITEGIC>MOL_PROPERTY
W
SciTegic.value.DoubleValue
-58.308

@<SCITEGIC>MOL_PROPERTY
W(PB)
SciTegic.value.DoubleValue
-60.184

@<SCITEGIC>MOL_PROPERTY
W(SA)
SciTegic.value.DoubleValue
1.877

@<SCITEGIC>MOL_PROPERTY
Valence
SciTegic.value.DoubleValue
2.149

@<SCITEGIC>MOL_PROPERTY
Coulomb
SciTegic.value.DoubleValue
45.035

@<SCITEGIC>MOL_PROPERTY
VdW
SciTegic.value.DoubleValue
0.378

@<SCITEGIC>MOL_PROPERTY
VdW6
SciTegic.value.DoubleValue
-5.599

@<SCITEGIC>MOL_PROPERTY
VdW12
SciTegic.value.DoubleValue
5.978

@<SCITEGIC>MOL_PROPERTY
Bond
SciTegic.value.DoubleValue
0.185

@<SCITEGIC>MOL_PROPERTY
Angle
SciTegic.value.DoubleValue
0.935

@<SCITEGIC>MOL_PROPERTY
Pdih
SciTegic.value.DoubleValue
1.028

@<SCITEGIC>MOL_PROPERTY
Idih
SciTegic.value.DoubleValue
0.000

@<SCITEGIC>MOL_PROPERTY
Tether
SciTegic.value.DoubleValue
0.000

@<TRIPOS>MOLECULE
guest-s11_confgen4.mol2 : confsearch ligand conformer 333
          20          19           1
SMALL
USER_CHARGES
 
@<TRIPOS>ATOM
       1    N1      17.992235   18.569879   22.827278 N.4        1 MOL1        -0.5919
       2    H1      17.739519   18.011486   23.648511 H          1 MOL1         0.3682
       3    H2      18.137888   19.531434   23.148030 H          1 MOL1         0.3682
       4    H3      17.172998   18.580848   22.210775 H          1 MOL1         0.3682
       5    C1      19.217932   18.018240   22.125053 C.3        1 MOL1         0.0252
       6    H4      19.410595   18.638377   21.248223 H          1 MOL1         0.0971
       7    H5      18.971617   17.011408   21.776997 H          1 MOL1         0.0971
       8    C2      20.472658   17.950574   23.021601 C.3        1 MOL1        -0.1369
       9    H6      20.234410   17.327833   23.894098 H          1 MOL1         0.0997
      10    H7      21.273855   17.423836   22.486579 H          1 MOL1         0.0997
      11    C3      20.993793   19.327329   23.514840 C.3        1 MOL1        -0.1329
      12    H8      21.577060   19.157805   24.430529 H          1 MOL1         0.0997
      13    H9      20.158462   19.972449   23.816114 H          1 MOL1         0.0997
      14    C4      21.909879   20.079249   22.515122 C.3        1 MOL1        -0.1305
      15    H10     22.286825   20.986071   23.008612 H          1 MOL1         0.0997
      16    H11     22.794637   19.467215   22.290624 H          1 MOL1         0.0997
      17    C5      21.220969   20.489862   21.194996 C.3        1 MOL1        -0.2320
      18    H12     20.270830   21.005766   21.384308 H          1 MOL1         0.1008
      19    H13     21.864635   21.171945   20.624570 H          1 MOL1         0.1008
      20    H14     21.028489   19.619155   20.557130 H          1 MOL1         0.1008
@<TRIPOS>BOND
    1     1     2    1
    2     1     3    1
    3     1     4    1
    4     1     5    1
    5     5     6    1
    6     5     7    1
    7     5     8    1
    8     8     9    1
    9     8    10    1
   10     8    11    1
   11    11    12    1
   12    11    13    1
   13    11    14    1
   14    14    15    1
   15    14    16    1
   16    14    17    1
   17    17    18    1
   18    17    19    1
   19    17    20    1
@<TRIPOS>SUBSTRUCTURE
       1 MOL1            1 RESIDUE      1      MOL     
@<SCITEGIC>MOL_PROPERTY
VConf Rank
SciTegic.value.IntegerValue
333

@<SCITEGIC>MOL_PROPERTY
Conf_Id
SciTegic.value.IntegerValue
80

@<SCITEGIC>MOL_PROPERTY
Delta U+W
SciTegic.value.DoubleValue
2.920

@<SCITEGIC>MOL_PROPERTY
U+W
SciTegic.value.DoubleValue
-8.857

@<SCITEGIC>MOL_PROPERTY
Grad RMS
SciTegic.value.DoubleValue
0.000000

@<SCITEGIC>MOL_PROPERTY
U
SciTegic.value.DoubleValue
49.434

@<SCITEGIC>MOL_PROPERTY
W
SciTegic.value.DoubleValue
-58.292

@<SCITEGIC>MOL_PROPERTY
W(PB)
SciTegic.value.DoubleValue
-60.170

@<SCITEGIC>MOL_PROPERTY
W(SA)
SciTegic.value.DoubleValue
1.879

@<SCITEGIC>MOL_PROPERTY
Valence
SciTegic.value.DoubleValue
3.798

@<SCITEGIC>MOL_PROPERTY
Coulomb
SciTegic.value.DoubleValue
45.253

@<SCITEGIC>MOL_PROPERTY
VdW
SciTegic.value.DoubleValue
0.384

@<SCITEGIC>MOL_PROPERTY
VdW6
SciTegic.value.DoubleValue
-5.595

@<SCITEGIC>MOL_PROPERTY
VdW12
SciTegic.value.DoubleValue
5.979

@<SCITEGIC>MOL_PROPERTY
Bond
SciTegic.value.DoubleValue
0.198

@<SCITEGIC>MOL_PROPERTY
Angle
SciTegic.value.DoubleValue
1.368

@<SCITEGIC>MOL_PROPERTY
Pdih
SciTegic.value.DoubleValue
2.231

@<SCITEGIC>MOL_PROPERTY
Idih
SciTegic.value.DoubleValue
0.000

@<SCITEGIC>MOL_PROPERTY
Tether
SciTegic.value.DoubleValue
0.000

@<TRIPOS>MOLECULE
guest-s11_confgen4.mol2 : confsearch ligand conformer 334
          20          19           1
SMALL
USER_CHARGES
 
@<TRIPOS>ATOM
       1    N1      19.331295   20.626778   20.853216 N.4        1 MOL1        -0.5919
       2    H1      18.395598   20.439100   20.479936 H          1 MOL1         0.3682
       3    H2      19.591544   21.569446   20.545005 H          1 MOL1         0.3682
       4    H3      19.975721   19.974576   20.397108 H          1 MOL1         0.3682
       5    C1      19.373025   20.496707   22.363546 C.3        1 MOL1         0.0252
       6    H4      18.695516   21.248901   22.776717 H          1 MOL1         0.0971
       7    H5      20.384347   20.738701   22.693974 H          1 MOL1         0.0971
       8    C2      18.957599   19.103069   22.881159 C.3        1 MOL1        -0.1369
       9    H6      18.887392   19.128141   23.976632 H          1 MOL1         0.0997
      10    H7      17.941784   18.894680   22.519893 H          1 MOL1         0.0997
      11    C3      19.892958   17.942897   22.445921 C.3        1 MOL1        -0.1329
      12    H8      20.184768   18.054491   21.393726 H          1 MOL1         0.0997
      13    H9      19.314777   17.009589   22.491382 H          1 MOL1         0.0997
      14    C4      21.153669   17.749737   23.327589 C.3        1 MOL1        -0.1305
      15    H10     20.852936   17.542718   24.364163 H          1 MOL1         0.0997
      16    H11     21.681906   16.850527   22.980697 H          1 MOL1         0.0997
      17    C5      22.141347   18.937165   23.306736 C.3        1 MOL1        -0.2320
      18    H12     21.739970   19.800302   23.850741 H          1 MOL1         0.1008
      19    H13     23.084215   18.658076   23.794628 H          1 MOL1         0.1008
      20    H14     22.374162   19.244645   22.279111 H          1 MOL1         0.1008
@<TRIPOS>BOND
    1     1     2    1
    2     1     3    1
    3     1     4    1
    4     1     5    1
    5     5     6    1
    6     5     7    1
    7     5     8    1
    8     8     9    1
    9     8    10    1
   10     8    11    1
   11    11    12    1
   12    11    13    1
   13    11    14    1
   14    14    15    1
   15    14    16    1
   16    14    17    1
   17    17    18    1
   18    17    19    1
   19    17    20    1
@<TRIPOS>SUBSTRUCTURE
       1 MOL1            1 RESIDUE      1      MOL     
@<SCITEGIC>MOL_PROPERTY
VConf Rank
SciTegic.value.IntegerValue
334

@<SCITEGIC>MOL_PROPERTY
Conf_Id
SciTegic.value.IntegerValue
65

@<SCITEGIC>MOL_PROPERTY
Delta U+W
SciTegic.value.DoubleValue
2.949

@<SCITEGIC>MOL_PROPERTY
U+W
SciTegic.value.DoubleValue
-8.829

@<SCITEGIC>MOL_PROPERTY
Grad RMS
SciTegic.value.DoubleValue
0.000000

@<SCITEGIC>MOL_PROPERTY
U
SciTegic.value.DoubleValue
49.435

@<SCITEGIC>MOL_PROPERTY
W
SciTegic.value.DoubleValue
-58.263

@<SCITEGIC>MOL_PROPERTY
W(PB)
SciTegic.value.DoubleValue
-60.125

@<SCITEGIC>MOL_PROPERTY
W(SA)
SciTegic.value.DoubleValue
1.862

@<SCITEGIC>MOL_PROPERTY
Valence
SciTegic.value.DoubleValue
3.797

@<SCITEGIC>MOL_PROPERTY
Coulomb
SciTegic.value.DoubleValue
45.253

@<SCITEGIC>MOL_PROPERTY
VdW
SciTegic.value.DoubleValue
0.384

@<SCITEGIC>MOL_PROPERTY
VdW6
SciTegic.value.DoubleValue
-5.596

@<SCITEGIC>MOL_PROPERTY
VdW12
SciTegic.value.DoubleValue
5.980

@<SCITEGIC>MOL_PROPERTY
Bond
SciTegic.value.DoubleValue
0.198

@<SCITEGIC>MOL_PROPERTY
Angle
SciTegic.value.DoubleValue
1.369

@<SCITEGIC>MOL_PROPERTY
Pdih
SciTegic.value.DoubleValue
2.230

@<SCITEGIC>MOL_PROPERTY
Idih
SciTegic.value.DoubleValue
0.000

@<SCITEGIC>MOL_PROPERTY
Tether
SciTegic.value.DoubleValue
0.000

@<TRIPOS>MOLECULE
guest-s11_confgen4.mol2 : confsearch ligand conformer 335
          20          19           1
SMALL
USER_CHARGES
 
@<TRIPOS>ATOM
       1    N1      21.689103   18.257790   23.132152 N.4        1 MOL1        -0.5919
       2    H1      21.957077   17.737560   23.974312 H          1 MOL1         0.3682
       3    H2      20.889939   17.771932   22.713819 H          1 MOL1         0.3682
       4    H3      22.470867   18.182043   22.473734 H          1 MOL1         0.3682
       5    C1      21.355320   19.703550   23.445077 C.3        1 MOL1         0.0252
       6    H4      22.251805   20.150744   23.883089 H          1 MOL1         0.0971
       7    H5      20.562918   19.725550   24.197949 H          1 MOL1         0.0971
       8    C2      20.931096   20.529393   22.213644 C.3        1 MOL1        -0.1369
       9    H6      21.117672   21.587333   22.441158 H          1 MOL1         0.0997
      10    H7      21.581407   20.288291   21.362307 H          1 MOL1         0.0997
      11    C3      19.440066   20.389065   21.804989 C.3        1 MOL1        -0.1329
      12    H8      19.266920   21.066785   20.957498 H          1 MOL1         0.0997
      13    H9      18.793900   20.759340   22.612970 H          1 MOL1         0.0997
      14    C4      18.996874   18.966065   21.379348 C.3        1 MOL1        -0.1305
      15    H10     18.257900   19.056964   20.570700 H          1 MOL1         0.0997
      16    H11     19.841631   18.413852   20.946094 H          1 MOL1         0.0997
      17    C5      18.342522   18.163990   22.529270 C.3        1 MOL1        -0.2320
      18    H12     18.990594   18.087102   23.408864 H          1 MOL1         0.1008
      19    H13     17.408108   18.642523   22.850513 H          1 MOL1         0.1008
      20    H14     18.095708   17.146348   22.199620 H          1 MOL1         0.1008
@<TRIPOS>BOND
    1     1     2    1
    2     1     3    1
    3     1     4    1
    4     1     5    1
    5     5     6    1
    6     5     7    1
    7     5     8    1
    8     8     9    1
    9     8    10    1
   10     8    11    1
   11    11    12    1
   12    11    13    1
   13    11    14    1
   14    14    15    1
   15    14    16    1
   16    14    17    1
   17    17    18    1
   18    17    19    1
   19    17    20    1
@<TRIPOS>SUBSTRUCTURE
       1 MOL1            1 RESIDUE      1      MOL     
@<SCITEGIC>MOL_PROPERTY
VConf Rank
SciTegic.value.IntegerValue
335

@<SCITEGIC>MOL_PROPERTY
Conf_Id
SciTegic.value.IntegerValue
77

@<SCITEGIC>MOL_PROPERTY
Delta U+W
SciTegic.value.DoubleValue
5.366

@<SCITEGIC>MOL_PROPERTY
U+W
SciTegic.value.DoubleValue
-6.412

@<SCITEGIC>MOL_PROPERTY
Grad RMS
SciTegic.value.DoubleValue
0.000000

@<SCITEGIC>MOL_PROPERTY
U
SciTegic.value.DoubleValue
51.542

@<SCITEGIC>MOL_PROPERTY
W
SciTegic.value.DoubleValue
-57.954

@<SCITEGIC>MOL_PROPERTY
W(PB)
SciTegic.value.DoubleValue
-59.811

@<SCITEGIC>MOL_PROPERTY
W(SA)
SciTegic.value.DoubleValue
1.857

@<SCITEGIC>MOL_PROPERTY
Valence
SciTegic.value.DoubleValue
5.347

@<SCITEGIC>MOL_PROPERTY
Coulomb
SciTegic.value.DoubleValue
45.870

@<SCITEGIC>MOL_PROPERTY
VdW
SciTegic.value.DoubleValue
0.325

@<SCITEGIC>MOL_PROPERTY
VdW6
SciTegic.value.DoubleValue
-6.161

@<SCITEGIC>MOL_PROPERTY
VdW12
SciTegic.value.DoubleValue
6.486

@<SCITEGIC>MOL_PROPERTY
Bond
SciTegic.value.DoubleValue
0.201

@<SCITEGIC>MOL_PROPERTY
Angle
SciTegic.value.DoubleValue
1.484

@<SCITEGIC>MOL_PROPERTY
Pdih
SciTegic.value.DoubleValue
3.662

@<SCITEGIC>MOL_PROPERTY
Idih
SciTegic.value.DoubleValue
0.000

@<SCITEGIC>MOL_PROPERTY
Tether
SciTegic.value.DoubleValue
0.000

@<TRIPOS>MOLECULE
guest-s11_confgen4.mol2 : confsearch ligand conformer 336
          20          19           1
SMALL
USER_CHARGES
 
@<TRIPOS>ATOM
       1    N1      19.997257   20.409336   23.852441 N.4        1 MOL1        -0.5919
       2    H1      20.146760   20.082958   24.812406 H          1 MOL1         0.3682
       3    H2      20.878012   20.279109   23.345452 H          1 MOL1         0.3682
       4    H3      19.820286   21.418118   23.904638 H          1 MOL1         0.3682
       5    C1      18.856876   19.671135   23.178535 C.3        1 MOL1         0.0252
       6    H4      18.698437   20.101379   22.186069 H          1 MOL1         0.0971
       7    H5      17.959676   19.856020   23.775502 H          1 MOL1         0.0971
       8    C2      19.078315   18.149465   23.060661 C.3        1 MOL1        -0.1369
       9    H6      19.506268   17.762566   23.994993 H          1 MOL1         0.0997
      10    H7      18.092440   17.675338   22.965447 H          1 MOL1         0.0997
      11    C3      19.939261   17.698267   21.850266 C.3        1 MOL1        -0.1329
      12    H8      19.437338   17.970632   20.911461 H          1 MOL1         0.0997
      13    H9      19.967833   16.599800   21.859220 H          1 MOL1         0.0997
      14    C4      21.400259   18.215890   21.841851 C.3        1 MOL1        -0.1305
      15    H10     21.758300   18.373069   22.868187 H          1 MOL1         0.0997
      16    H11     22.046476   17.432838   21.420552 H          1 MOL1         0.0997
      17    C5      21.587659   19.492771   20.988460 C.3        1 MOL1        -0.2320
      18    H12     22.621883   19.854764   21.055697 H          1 MOL1         0.1008
      19    H13     21.379174   19.284153   19.930946 H          1 MOL1         0.1008
      20    H14     20.923364   20.306259   21.299175 H          1 MOL1         0.1008
@<TRIPOS>BOND
    1     1     2    1
    2     1     3    1
    3     1     4    1
    4     1     5    1
    5     5     6    1
    6     5     7    1
    7     5     8    1
    8     8     9    1
    9     8    10    1
   10     8    11    1
   11    11    12    1
   12    11    13    1
   13    11    14    1
   14    14    15    1
   15    14    16    1
   16    14    17    1
   17    17    18    1
   18    17    19    1
   19    17    20    1
@<TRIPOS>SUBSTRUCTURE
       1 MOL1            1 RESIDUE      1      MOL     
@<SCITEGIC>MOL_PROPERTY
VConf Rank
SciTegic.value.IntegerValue
336

@<SCITEGIC>MOL_PROPERTY
Conf_Id
SciTegic.value.IntegerValue
67

@<SCITEGIC>MOL_PROPERTY
Delta U+W
SciTegic.value.DoubleValue
5.353

@<SCITEGIC>MOL_PROPERTY
U+W
SciTegic.value.DoubleValue
-6.425

@<SCITEGIC>MOL_PROPERTY
Grad RMS
SciTegic.value.DoubleValue
0.000000

@<SCITEGIC>MOL_PROPERTY
U
SciTegic.value.DoubleValue
51.541

@<SCITEGIC>MOL_PROPERTY
W
SciTegic.value.DoubleValue
-57.966

@<SCITEGIC>MOL_PROPERTY
W(PB)
SciTegic.value.DoubleValue
-59.821

@<SCITEGIC>MOL_PROPERTY
W(SA)
SciTegic.value.DoubleValue
1.855

@<SCITEGIC>MOL_PROPERTY
Valence
SciTegic.value.DoubleValue
5.347

@<SCITEGIC>MOL_PROPERTY
Coulomb
SciTegic.value.DoubleValue
45.870

@<SCITEGIC>MOL_PROPERTY
VdW
SciTegic.value.DoubleValue
0.325

@<SCITEGIC>MOL_PROPERTY
VdW6
SciTegic.value.DoubleValue
-6.161

@<SCITEGIC>MOL_PROPERTY
VdW12
SciTegic.value.DoubleValue
6.486

@<SCITEGIC>MOL_PROPERTY
Bond
SciTegic.value.DoubleValue
0.201

@<SCITEGIC>MOL_PROPERTY
Angle
SciTegic.value.DoubleValue
1.485

@<SCITEGIC>MOL_PROPERTY
Pdih
SciTegic.value.DoubleValue
3.662

@<SCITEGIC>MOL_PROPERTY
Idih
SciTegic.value.DoubleValue
0.000

@<SCITEGIC>MOL_PROPERTY
Tether
SciTegic.value.DoubleValue
0.000

@<TRIPOS>MOLECULE
guest-s11_confgen4.mol2 : confsearch ligand conformer 337
          20          19           1
SMALL
USER_CHARGES
 
@<TRIPOS>ATOM
       1    N1      19.024260   17.421298   24.946339 N.4        1 MOL1        -0.5919
       2    H1      18.046814   17.725428   24.896423 H          1 MOL1         0.3682
       3    H2      19.015269   16.439849   25.243452 H          1 MOL1         0.3682
       4    H3      19.467870   17.955682   25.700018 H          1 MOL1         0.3682
       5    C1      19.742436   17.602855   23.624315 C.3        1 MOL1         0.0252
       6    H4      19.236694   16.984472   22.877759 H          1 MOL1         0.0971
       7    H5      20.764369   17.232185   23.741668 H          1 MOL1         0.0971
       8    C2      19.773889   19.066530   23.148992 C.3        1 MOL1        -0.1369
       9    H6      18.745931   19.439549   23.047873 H          1 MOL1         0.0997
      10    H7      20.268343   19.686426   23.908802 H          1 MOL1         0.0997
      11    C3      20.513752   19.207798   21.800149 C.3        1 MOL1        -0.1329
      12    H8      20.019561   18.582265   21.043661 H          1 MOL1         0.0997
      13    H9      21.540179   18.828927   21.903571 H          1 MOL1         0.0997
      14    C4      20.551512   20.673639   21.312890 C.3        1 MOL1        -0.1305
      15    H10     19.526592   21.055972   21.206080 H          1 MOL1         0.0997
      16    H11     21.047076   21.302587   22.065810 H          1 MOL1         0.0997
      17    C5      21.291536   20.809909   19.965012 C.3        1 MOL1        -0.2320
      18    H12     20.798761   20.218580   19.182249 H          1 MOL1         0.1008
      19    H13     21.307799   21.856980   19.635738 H          1 MOL1         0.1008
      20    H14     22.331150   20.467257   20.048714 H          1 MOL1         0.1008
@<TRIPOS>BOND
    1     1     2    1
    2     1     3    1
    3     1     4    1
    4     1     5    1
    5     5     6    1
    6     5     7    1
    7     5     8    1
    8     8     9    1
    9     8    10    1
   10     8    11    1
   11    11    12    1
   12    11    13    1
   13    11    14    1
   14    14    15    1
   15    14    16    1
   16    14    17    1
   17    17    18    1
   18    17    19    1
   19    17    20    1
@<TRIPOS>SUBSTRUCTURE
       1 MOL1            1 RESIDUE      1      MOL     
@<SCITEGIC>MOL_PROPERTY
VConf Rank
SciTegic.value.IntegerValue
337

@<SCITEGIC>MOL_PROPERTY
Conf_Id
SciTegic.value.IntegerValue
72

@<SCITEGIC>MOL_PROPERTY
Delta U+W
SciTegic.value.DoubleValue
0.000

@<SCITEGIC>MOL_PROPERTY
U+W
SciTegic.value.DoubleValue
-11.778

@<SCITEGIC>MOL_PROPERTY
Grad RMS
SciTegic.value.DoubleValue
0.000000

@<SCITEGIC>MOL_PROPERTY
U
SciTegic.value.DoubleValue
45.772

@<SCITEGIC>MOL_PROPERTY
W
SciTegic.value.DoubleValue
-57.550

@<SCITEGIC>MOL_PROPERTY
W(PB)
SciTegic.value.DoubleValue
-59.511

@<SCITEGIC>MOL_PROPERTY
W(SA)
SciTegic.value.DoubleValue
1.961

@<SCITEGIC>MOL_PROPERTY
Valence
SciTegic.value.DoubleValue
1.299

@<SCITEGIC>MOL_PROPERTY
Coulomb
SciTegic.value.DoubleValue
44.177

@<SCITEGIC>MOL_PROPERTY
VdW
SciTegic.value.DoubleValue
0.297

@<SCITEGIC>MOL_PROPERTY
VdW6
SciTegic.value.DoubleValue
-3.490

@<SCITEGIC>MOL_PROPERTY
VdW12
SciTegic.value.DoubleValue
3.786

@<SCITEGIC>MOL_PROPERTY
Bond
SciTegic.value.DoubleValue
0.096

@<SCITEGIC>MOL_PROPERTY
Angle
SciTegic.value.DoubleValue
0.381

@<SCITEGIC>MOL_PROPERTY
Pdih
SciTegic.value.DoubleValue
0.822

@<SCITEGIC>MOL_PROPERTY
Idih
SciTegic.value.DoubleValue
0.000

@<SCITEGIC>MOL_PROPERTY
Tether
SciTegic.value.DoubleValue
0.000

@<TRIPOS>MOLECULE
guest-s11_confgen4.mol2 : confsearch ligand conformer 338
          20          19           1
SMALL
USER_CHARGES
 
@<TRIPOS>ATOM
       1    N1      19.296880   19.454965   25.363667 N.4        1 MOL1        -0.5919
       2    H1      18.916343   20.391102   25.192861 H          1 MOL1         0.3682
       3    H2      18.507655   18.801335   25.347693 H          1 MOL1         0.3682
       4    H3      19.664421   19.453692   26.321003 H          1 MOL1         0.3682
       5    C1      20.361444   19.082582   24.351437 C.3        1 MOL1         0.0252
       6    H4      20.742064   18.091108   24.611438 H          1 MOL1         0.0971
       7    H5      21.181250   19.800086   24.444231 H          1 MOL1         0.0971
       8    C2      19.842349   19.074337   22.902388 C.3        1 MOL1        -0.1369
       9    H6      19.008974   18.364348   22.817466 H          1 MOL1         0.0997
      10    H7      19.446957   20.068434   22.658454 H          1 MOL1         0.0997
      11    C3      20.959935   18.687302   21.905226 C.3        1 MOL1        -0.1329
      12    H8      21.394721   17.725397   22.210907 H          1 MOL1         0.0997
      13    H9      21.773728   19.423940   21.957128 H          1 MOL1         0.0997
      14    C4      20.467284   18.562462   20.442906 C.3        1 MOL1        -0.1305
      15    H10     21.293106   18.185104   19.823586 H          1 MOL1         0.0997
      16    H11     19.669379   17.809102   20.382303 H          1 MOL1         0.0997
      17    C5      19.967496   19.898057   19.846307 C.3        1 MOL1        -0.2320
      18    H12     20.737679   20.676744   19.920340 H          1 MOL1         0.1008
      19    H13     19.716800   19.774562   18.784774 H          1 MOL1         0.1008
      20    H14     19.065565   20.256237   20.357823 H          1 MOL1         0.1008
@<TRIPOS>BOND
    1     1     2    1
    2     1     3    1
    3     1     4    1
    4     1     5    1
    5     5     6    1
    6     5     7    1
    7     5     8    1
    8     8     9    1
    9     8    10    1
   10     8    11    1
   11    11    12    1
   12    11    13    1
   13    11    14    1
   14    14    15    1
   15    14    16    1
   16    14    17    1
   17    17    18    1
   18    17    19    1
   19    17    20    1
@<TRIPOS>SUBSTRUCTURE
       1 MOL1            1 RESIDUE      1      MOL     
@<SCITEGIC>MOL_PROPERTY
VConf Rank
SciTegic.value.IntegerValue
338

@<SCITEGIC>MOL_PROPERTY
Conf_Id
SciTegic.value.IntegerValue
42

@<SCITEGIC>MOL_PROPERTY
Delta U+W
SciTegic.value.DoubleValue
0.508

@<SCITEGIC>MOL_PROPERTY
U+W
SciTegic.value.DoubleValue
-11.270

@<SCITEGIC>MOL_PROPERTY
Grad RMS
SciTegic.value.DoubleValue
0.000000

@<SCITEGIC>MOL_PROPERTY
U
SciTegic.value.DoubleValue
46.486

@<SCITEGIC>MOL_PROPERTY
W
SciTegic.value.DoubleValue
-57.756

@<SCITEGIC>MOL_PROPERTY
W(PB)
SciTegic.value.DoubleValue
-59.705

@<SCITEGIC>MOL_PROPERTY
W(SA)
SciTegic.value.DoubleValue
1.949

@<SCITEGIC>MOL_PROPERTY
Valence
SciTegic.value.DoubleValue
1.806

@<SCITEGIC>MOL_PROPERTY
Coulomb
SciTegic.value.DoubleValue
44.248

@<SCITEGIC>MOL_PROPERTY
VdW
SciTegic.value.DoubleValue
0.433

@<SCITEGIC>MOL_PROPERTY
VdW6
SciTegic.value.DoubleValue
-4.089

@<SCITEGIC>MOL_PROPERTY
VdW12
SciTegic.value.DoubleValue
4.522

@<SCITEGIC>MOL_PROPERTY
Bond
SciTegic.value.DoubleValue
0.131

@<SCITEGIC>MOL_PROPERTY
Angle
SciTegic.value.DoubleValue
0.628

@<SCITEGIC>MOL_PROPERTY
Pdih
SciTegic.value.DoubleValue
1.047

@<SCITEGIC>MOL_PROPERTY
Idih
SciTegic.value.DoubleValue
0.000

@<SCITEGIC>MOL_PROPERTY
Tether
SciTegic.value.DoubleValue
0.000

@<TRIPOS>MOLECULE
guest-s11_confgen4.mol2 : confsearch ligand conformer 339
          20          19           1
SMALL
USER_CHARGES
 
@<TRIPOS>ATOM
       1    N1      21.238259   21.508430   23.841303 N.4        1 MOL1        -0.5919
       2    H1      21.284296   21.127741   24.791735 H          1 MOL1         0.3682
       3    H2      22.159721   21.367673   23.415358 H          1 MOL1         0.3682
       4    H3      21.104768   22.521032   23.932945 H          1 MOL1         0.3682
       5    C1      20.133338   20.866369   23.026753 C.3        1 MOL1         0.0252
       6    H4      20.122832   21.338622   22.040663 H          1 MOL1         0.0971
       7    H5      19.181747   21.081454   23.520419 H          1 MOL1         0.0971
       8    C2      20.303041   19.344557   22.870045 C.3        1 MOL1        -0.1369
       9    H6      21.268365   19.139872   22.390126 H          1 MOL1         0.0997
      10    H7      20.329015   18.876234   23.862925 H          1 MOL1         0.0997
      11    C3      19.153747   18.731976   22.035178 C.3        1 MOL1        -0.1329
      12    H8      19.156463   19.167254   21.026162 H          1 MOL1         0.0997
      13    H9      18.193014   19.012150   22.489310 H          1 MOL1         0.0997
      14    C4      19.218711   17.188585   21.933237 C.3        1 MOL1        -0.1305
      15    H10     19.192107   16.747935   22.939714 H          1 MOL1         0.0997
      16    H11     18.316265   16.830933   21.417858 H          1 MOL1         0.0997
      17    C5      20.462821   16.674376   21.173426 C.3        1 MOL1        -0.2320
      18    H12     21.389340   16.903300   21.714331 H          1 MOL1         0.1008
      19    H13     20.414307   15.584702   21.050095 H          1 MOL1         0.1008
      20    H14     20.528183   17.122219   20.173337 H          1 MOL1         0.1008
@<TRIPOS>BOND
    1     1     2    1
    2     1     3    1
    3     1     4    1
    4     1     5    1
    5     5     6    1
    6     5     7    1
    7     5     8    1
    8     8     9    1
    9     8    10    1
   10     8    11    1
   11    11    12    1
   12    11    13    1
   13    11    14    1
   14    14    15    1
   15    14    16    1
   16    14    17    1
   17    17    18    1
   18    17    19    1
   19    17    20    1
@<TRIPOS>SUBSTRUCTURE
       1 MOL1            1 RESIDUE      1      MOL     
@<SCITEGIC>MOL_PROPERTY
VConf Rank
SciTegic.value.IntegerValue
339

@<SCITEGIC>MOL_PROPERTY
Conf_Id
SciTegic.value.IntegerValue
41

@<SCITEGIC>MOL_PROPERTY
Delta U+W
SciTegic.value.DoubleValue
0.515

@<SCITEGIC>MOL_PROPERTY
U+W
SciTegic.value.DoubleValue
-11.263

@<SCITEGIC>MOL_PROPERTY
Grad RMS
SciTegic.value.DoubleValue
0.000000

@<SCITEGIC>MOL_PROPERTY
U
SciTegic.value.DoubleValue
46.486

@<SCITEGIC>MOL_PROPERTY
W
SciTegic.value.DoubleValue
-57.749

@<SCITEGIC>MOL_PROPERTY
W(PB)
SciTegic.value.DoubleValue
-59.685

@<SCITEGIC>MOL_PROPERTY
W(SA)
SciTegic.value.DoubleValue
1.936

@<SCITEGIC>MOL_PROPERTY
Valence
SciTegic.value.DoubleValue
1.806

@<SCITEGIC>MOL_PROPERTY
Coulomb
SciTegic.value.DoubleValue
44.248

@<SCITEGIC>MOL_PROPERTY
VdW
SciTegic.value.DoubleValue
0.433

@<SCITEGIC>MOL_PROPERTY
VdW6
SciTegic.value.DoubleValue
-4.089

@<SCITEGIC>MOL_PROPERTY
VdW12
SciTegic.value.DoubleValue
4.522

@<SCITEGIC>MOL_PROPERTY
Bond
SciTegic.value.DoubleValue
0.131

@<SCITEGIC>MOL_PROPERTY
Angle
SciTegic.value.DoubleValue
0.628

@<SCITEGIC>MOL_PROPERTY
Pdih
SciTegic.value.DoubleValue
1.047

@<SCITEGIC>MOL_PROPERTY
Idih
SciTegic.value.DoubleValue
0.000

@<SCITEGIC>MOL_PROPERTY
Tether
SciTegic.value.DoubleValue
0.000

@<TRIPOS>MOLECULE
guest-s11_confgen4.mol2 : confsearch ligand conformer 340
          20          19           1
SMALL
USER_CHARGES
 
@<TRIPOS>ATOM
       1    N1      21.226346   16.616796   22.033907 N.4        1 MOL1        -0.5919
       2    H1      21.931550   15.995962   21.623109 H          1 MOL1         0.3682
       3    H2      21.538525   16.834503   22.984742 H          1 MOL1         0.3682
       4    H3      20.362040   16.072349   22.116053 H          1 MOL1         0.3682
       5    C1      21.027714   17.870088   21.203264 C.3        1 MOL1         0.0252
       6    H4      20.739764   17.556701   20.196053 H          1 MOL1         0.0971
       7    H5      21.987642   18.389184   21.136038 H          1 MOL1         0.0971
       8    C2      19.958143   18.828087   21.763731 C.3        1 MOL1        -0.1369
       9    H6      19.810072   19.633969   21.034185 H          1 MOL1         0.0997
      10    H7      18.999550   18.298989   21.846460 H          1 MOL1         0.0997
      11    C3      20.353587   19.429899   23.135796 C.3        1 MOL1        -0.1329
      12    H8      21.301821   19.976868   23.040168 H          1 MOL1         0.0997
      13    H9      20.536200   18.617991   23.852082 H          1 MOL1         0.0997
      14    C4      19.274674   20.366526   23.732167 C.3        1 MOL1        -0.1305
      15    H10     18.327572   19.820019   23.842592 H          1 MOL1         0.0997
      16    H11     19.581741   20.655911   24.747011 H          1 MOL1         0.0997
      17    C5      19.041813   21.648033   22.899535 C.3        1 MOL1        -0.2320
      18    H12     18.614210   21.418763   21.915736 H          1 MOL1         0.1008
      19    H13     18.341261   22.318212   23.414351 H          1 MOL1         0.1008
      20    H14     19.980306   22.196900   22.747948 H          1 MOL1         0.1008
@<TRIPOS>BOND
    1     1     2    1
    2     1     3    1
    3     1     4    1
    4     1     5    1
    5     5     6    1
    6     5     7    1
    7     5     8    1
    8     8     9    1
    9     8    10    1
   10     8    11    1
   11    11    12    1
   12    11    13    1
   13    11    14    1
   14    14    15    1
   15    14    16    1
   16    14    17    1
   17    17    18    1
   18    17    19    1
   19    17    20    1
@<TRIPOS>SUBSTRUCTURE
       1 MOL1            1 RESIDUE      1      MOL     
@<SCITEGIC>MOL_PROPERTY
VConf Rank
SciTegic.value.IntegerValue
340

@<SCITEGIC>MOL_PROPERTY
Conf_Id
SciTegic.value.IntegerValue
33

@<SCITEGIC>MOL_PROPERTY
Delta U+W
SciTegic.value.DoubleValue
0.703

@<SCITEGIC>MOL_PROPERTY
U+W
SciTegic.value.DoubleValue
-11.075

@<SCITEGIC>MOL_PROPERTY
Grad RMS
SciTegic.value.DoubleValue
0.000000

@<SCITEGIC>MOL_PROPERTY
U
SciTegic.value.DoubleValue
47.080

@<SCITEGIC>MOL_PROPERTY
W
SciTegic.value.DoubleValue
-58.154

@<SCITEGIC>MOL_PROPERTY
W(PB)
SciTegic.value.DoubleValue
-60.053

@<SCITEGIC>MOL_PROPERTY
W(SA)
SciTegic.value.DoubleValue
1.899

@<SCITEGIC>MOL_PROPERTY
Valence
SciTegic.value.DoubleValue
1.943

@<SCITEGIC>MOL_PROPERTY
Coulomb
SciTegic.value.DoubleValue
44.572

@<SCITEGIC>MOL_PROPERTY
VdW
SciTegic.value.DoubleValue
0.565

@<SCITEGIC>MOL_PROPERTY
VdW6
SciTegic.value.DoubleValue
-4.575

@<SCITEGIC>MOL_PROPERTY
VdW12
SciTegic.value.DoubleValue
5.139

@<SCITEGIC>MOL_PROPERTY
Bond
SciTegic.value.DoubleValue
0.158

@<SCITEGIC>MOL_PROPERTY
Angle
SciTegic.value.DoubleValue
0.700

@<SCITEGIC>MOL_PROPERTY
Pdih
SciTegic.value.DoubleValue
1.085

@<SCITEGIC>MOL_PROPERTY
Idih
SciTegic.value.DoubleValue
0.000

@<SCITEGIC>MOL_PROPERTY
Tether
SciTegic.value.DoubleValue
0.000

@<TRIPOS>MOLECULE
guest-s11_confgen4.mol2 : confsearch ligand conformer 341
          20          19           1
SMALL
USER_CHARGES
 
@<TRIPOS>ATOM
       1    N1      21.044699   20.566790   24.647264 N.4        1 MOL1        -0.5919
       2    H1      21.797486   20.970064   25.214877 H          1 MOL1         0.3682
       3    H2      20.224758   21.169384   24.768795 H          1 MOL1         0.3682
       4    H3      20.815664   19.657313   25.058765 H          1 MOL1         0.3682
       5    C1      21.443820   20.443210   23.189323 C.3        1 MOL1         0.0252
       6    H4      22.333428   19.810088   23.132780 H          1 MOL1         0.0971
       7    H5      21.714417   21.441654   22.835083 H          1 MOL1         0.0971
       8    C2      20.337283   19.864811   22.285503 C.3        1 MOL1        -0.1369
       9    H6      19.439510   20.492877   22.357815 H          1 MOL1         0.0997
      10    H7      20.681986   19.928231   21.245904 H          1 MOL1         0.0997
      11    C3      19.987908   18.395628   22.632716 C.3        1 MOL1        -0.1329
      12    H8      19.678512   18.332219   23.684316 H          1 MOL1         0.0997
      13    H9      20.885679   17.769384   22.536322 H          1 MOL1         0.0997
      14    C4      18.852416   17.808942   21.758969 C.3        1 MOL1        -0.1305
      15    H10     18.591398   16.812891   22.143278 H          1 MOL1         0.0997
      16    H11     17.947683   18.424243   21.862543 H          1 MOL1         0.0997
      17    C5      19.226962   17.681993   20.264525 C.3        1 MOL1        -0.2320
      18    H12     20.146901   17.097039   20.135891 H          1 MOL1         0.1008
      19    H13     18.427005   17.174375   19.710142 H          1 MOL1         0.1008
      20    H14     19.375937   18.664602   19.800243 H          1 MOL1         0.1008
@<TRIPOS>BOND
    1     1     2    1
    2     1     3    1
    3     1     4    1
    4     1     5    1
    5     5     6    1
    6     5     7    1
    7     5     8    1
    8     8     9    1
    9     8    10    1
   10     8    11    1
   11    11    12    1
   12    11    13    1
   13    11    14    1
   14    14    15    1
   15    14    16    1
   16    14    17    1
   17    17    18    1
   18    17    19    1
   19    17    20    1
@<TRIPOS>SUBSTRUCTURE
       1 MOL1            1 RESIDUE      1      MOL     
@<SCITEGIC>MOL_PROPERTY
VConf Rank
SciTegic.value.IntegerValue
341

@<SCITEGIC>MOL_PROPERTY
Conf_Id
SciTegic.value.IntegerValue
24

@<SCITEGIC>MOL_PROPERTY
Delta U+W
SciTegic.value.DoubleValue
0.847

@<SCITEGIC>MOL_PROPERTY
U+W
SciTegic.value.DoubleValue
-10.931

@<SCITEGIC>MOL_PROPERTY
Grad RMS
SciTegic.value.DoubleValue
0.000000

@<SCITEGIC>MOL_PROPERTY
U
SciTegic.value.DoubleValue
47.080

@<SCITEGIC>MOL_PROPERTY
W
SciTegic.value.DoubleValue
-58.011

@<SCITEGIC>MOL_PROPERTY
W(PB)
SciTegic.value.DoubleValue
-59.914

@<SCITEGIC>MOL_PROPERTY
W(SA)
SciTegic.value.DoubleValue
1.903

@<SCITEGIC>MOL_PROPERTY
Valence
SciTegic.value.DoubleValue
1.943

@<SCITEGIC>MOL_PROPERTY
Coulomb
SciTegic.value.DoubleValue
44.572

@<SCITEGIC>MOL_PROPERTY
VdW
SciTegic.value.DoubleValue
0.565

@<SCITEGIC>MOL_PROPERTY
VdW6
SciTegic.value.DoubleValue
-4.575

@<SCITEGIC>MOL_PROPERTY
VdW12
SciTegic.value.DoubleValue
5.140

@<SCITEGIC>MOL_PROPERTY
Bond
SciTegic.value.DoubleValue
0.158

@<SCITEGIC>MOL_PROPERTY
Angle
SciTegic.value.DoubleValue
0.700

@<SCITEGIC>MOL_PROPERTY
Pdih
SciTegic.value.DoubleValue
1.085

@<SCITEGIC>MOL_PROPERTY
Idih
SciTegic.value.DoubleValue
0.000

@<SCITEGIC>MOL_PROPERTY
Tether
SciTegic.value.DoubleValue
0.000

@<TRIPOS>MOLECULE
guest-s11_confgen4.mol2 : confsearch ligand conformer 342
          20          19           1
SMALL
USER_CHARGES
 
@<TRIPOS>ATOM
       1    N1      22.379845   20.772658   22.274635 N.4        1 MOL1        -0.5919
       2    H1      22.684992   21.307807   21.454886 H          1 MOL1         0.3682
       3    H2      22.006173   21.448275   22.948529 H          1 MOL1         0.3682
       4    H3      23.221672   20.364253   22.692775 H          1 MOL1         0.3682
       5    C1      21.359171   19.714224   21.908206 C.3        1 MOL1         0.0252
       6    H4      21.812649   19.049014   21.168456 H          1 MOL1         0.0971
       7    H5      20.507036   20.216373   21.442700 H          1 MOL1         0.0971
       8    C2      20.878880   18.891731   23.118764 C.3        1 MOL1        -0.1369
       9    H6      21.747051   18.425578   23.603265 H          1 MOL1         0.0997
      10    H7      20.431704   19.559650   23.866006 H          1 MOL1         0.0997
      11    C3      19.870054   17.782906   22.727900 C.3        1 MOL1        -0.1329
      12    H8      19.579866   17.230442   23.632243 H          1 MOL1         0.0997
      13    H9      20.374849   17.054560   22.078141 H          1 MOL1         0.0997
      14    C4      18.592014   18.288918   22.011109 C.3        1 MOL1        -0.1305
      15    H10     18.853956   18.752374   21.050186 H          1 MOL1         0.0997
      16    H11     17.961971   17.422542   21.765508 H          1 MOL1         0.0997
      17    C5      17.764406   19.281816   22.858592 C.3        1 MOL1        -0.2320
      18    H12     16.827303   19.536132   22.346668 H          1 MOL1         0.1008
      19    H13     17.507050   18.849368   23.834160 H          1 MOL1         0.1008
      20    H14     18.310637   20.217670   23.030181 H          1 MOL1         0.1008
@<TRIPOS>BOND
    1     1     2    1
    2     1     3    1
    3     1     4    1
    4     1     5    1
    5     5     6    1
    6     5     7    1
    7     5     8    1
    8     8     9    1
    9     8    10    1
   10     8    11    1
   11    11    12    1
   12    11    13    1
   13    11    14    1
   14    14    15    1
   15    14    16    1
   16    14    17    1
   17    17    18    1
   18    17    19    1
   19    17    20    1
@<TRIPOS>SUBSTRUCTURE
       1 MOL1            1 RESIDUE      1      MOL     
@<SCITEGIC>MOL_PROPERTY
VConf Rank
SciTegic.value.IntegerValue
342

@<SCITEGIC>MOL_PROPERTY
Conf_Id
SciTegic.value.IntegerValue
64

@<SCITEGIC>MOL_PROPERTY
Delta U+W
SciTegic.value.DoubleValue
0.707

@<SCITEGIC>MOL_PROPERTY
U+W
SciTegic.value.DoubleValue
-11.070

@<SCITEGIC>MOL_PROPERTY
Grad RMS
SciTegic.value.DoubleValue
0.000000

@<SCITEGIC>MOL_PROPERTY
U
SciTegic.value.DoubleValue
47.077

@<SCITEGIC>MOL_PROPERTY
W
SciTegic.value.DoubleValue
-58.148

@<SCITEGIC>MOL_PROPERTY
W(PB)
SciTegic.value.DoubleValue
-60.054

@<SCITEGIC>MOL_PROPERTY
W(SA)
SciTegic.value.DoubleValue
1.906

@<SCITEGIC>MOL_PROPERTY
Valence
SciTegic.value.DoubleValue
2.039

@<SCITEGIC>MOL_PROPERTY
Coulomb
SciTegic.value.DoubleValue
44.655

@<SCITEGIC>MOL_PROPERTY
VdW
SciTegic.value.DoubleValue
0.383

@<SCITEGIC>MOL_PROPERTY
VdW6
SciTegic.value.DoubleValue
-4.912

@<SCITEGIC>MOL_PROPERTY
VdW12
SciTegic.value.DoubleValue
5.295

@<SCITEGIC>MOL_PROPERTY
Bond
SciTegic.value.DoubleValue
0.159

@<SCITEGIC>MOL_PROPERTY
Angle
SciTegic.value.DoubleValue
0.856

@<SCITEGIC>MOL_PROPERTY
Pdih
SciTegic.value.DoubleValue
1.024

@<SCITEGIC>MOL_PROPERTY
Idih
SciTegic.value.DoubleValue
0.000

@<SCITEGIC>MOL_PROPERTY
Tether
SciTegic.value.DoubleValue
0.000

@<TRIPOS>MOLECULE
guest-s11_confgen4.mol2 : confsearch ligand conformer 343
          20          19           1
SMALL
USER_CHARGES
 
@<TRIPOS>ATOM
       1    N1      21.436059   17.389522   24.283460 N.4        1 MOL1        -0.5919
       2    H1      21.663609   17.826148   25.182285 H          1 MOL1         0.3682
       3    H2      20.572735   16.854151   24.418634 H          1 MOL1         0.3682
       4    H3      22.179133   16.710968   24.086245 H          1 MOL1         0.3682
       5    C1      21.299912   18.413701   23.174926 C.3        1 MOL1         0.0252
       6    H4      21.088644   17.877220   22.246196 H          1 MOL1         0.0971
       7    H5      22.260637   18.924210   23.066449 H          1 MOL1         0.0971
       8    C2      20.190490   19.448807   23.440176 C.3        1 MOL1        -0.1369
       9    H6      19.227088   18.936607   23.558348 H          1 MOL1         0.0997
      10    H7      20.390279   19.952374   24.395302 H          1 MOL1         0.0997
      11    C3      20.088754   20.517964   22.323686 C.3        1 MOL1        -0.1329
      12    H8      21.018295   21.103716   22.305203 H          1 MOL1         0.0997
      13    H9      19.290099   21.227201   22.581359 H          1 MOL1         0.0997
      14    C4      19.826719   19.953515   20.903842 C.3        1 MOL1        -0.1305
      15    H10     19.792416   20.792213   20.194411 H          1 MOL1         0.0997
      16    H11     20.668167   19.323643   20.584463 H          1 MOL1         0.0997
      17    C5      18.508244   19.154431   20.793864 C.3        1 MOL1        -0.2320
      18    H12     17.652835   19.756058   21.127475 H          1 MOL1         0.1008
      19    H13     18.324180   18.857737   19.753192 H          1 MOL1         0.1008
      20    H14     18.540921   18.238444   21.396804 H          1 MOL1         0.1008
@<TRIPOS>BOND
    1     1     2    1
    2     1     3    1
    3     1     4    1
    4     1     5    1
    5     5     6    1
    6     5     7    1
    7     5     8    1
    8     8     9    1
    9     8    10    1
   10     8    11    1
   11    11    12    1
   12    11    13    1
   13    11    14    1
   14    14    15    1
   15    14    16    1
   16    14    17    1
   17    17    18    1
   18    17    19    1
   19    17    20    1
@<TRIPOS>SUBSTRUCTURE
       1 MOL1            1 RESIDUE      1      MOL     
@<SCITEGIC>MOL_PROPERTY
VConf Rank
SciTegic.value.IntegerValue
343

@<SCITEGIC>MOL_PROPERTY
Conf_Id
SciTegic.value.IntegerValue
22

@<SCITEGIC>MOL_PROPERTY
Delta U+W
SciTegic.value.DoubleValue
0.731

@<SCITEGIC>MOL_PROPERTY
U+W
SciTegic.value.DoubleValue
-11.047

@<SCITEGIC>MOL_PROPERTY
Grad RMS
SciTegic.value.DoubleValue
0.000000

@<SCITEGIC>MOL_PROPERTY
U
SciTegic.value.DoubleValue
47.078

@<SCITEGIC>MOL_PROPERTY
W
SciTegic.value.DoubleValue
-58.125

@<SCITEGIC>MOL_PROPERTY
W(PB)
SciTegic.value.DoubleValue
-60.031

@<SCITEGIC>MOL_PROPERTY
W(SA)
SciTegic.value.DoubleValue
1.906

@<SCITEGIC>MOL_PROPERTY
Valence
SciTegic.value.DoubleValue
2.039

@<SCITEGIC>MOL_PROPERTY
Coulomb
SciTegic.value.DoubleValue
44.655

@<SCITEGIC>MOL_PROPERTY
VdW
SciTegic.value.DoubleValue
0.383

@<SCITEGIC>MOL_PROPERTY
VdW6
SciTegic.value.DoubleValue
-4.913

@<SCITEGIC>MOL_PROPERTY
VdW12
SciTegic.value.DoubleValue
5.296

@<SCITEGIC>MOL_PROPERTY
Bond
SciTegic.value.DoubleValue
0.159

@<SCITEGIC>MOL_PROPERTY
Angle
SciTegic.value.DoubleValue
0.856

@<SCITEGIC>MOL_PROPERTY
Pdih
SciTegic.value.DoubleValue
1.024

@<SCITEGIC>MOL_PROPERTY
Idih
SciTegic.value.DoubleValue
0.000

@<SCITEGIC>MOL_PROPERTY
Tether
SciTegic.value.DoubleValue
0.000

@<TRIPOS>MOLECULE
guest-s11_confgen4.mol2 : confsearch ligand conformer 344
          20          19           1
SMALL
USER_CHARGES
 
@<TRIPOS>ATOM
       1    N1      21.340231   18.274659   20.189907 N.4        1 MOL1        -0.5919
       2    H1      21.846796   17.449763   20.526470 H          1 MOL1         0.3682
       3    H2      20.656859   17.947483   19.499785 H          1 MOL1         0.3682
       4    H3      22.018428   18.854457   19.684559 H          1 MOL1         0.3682
       5    C1      20.681375   19.035928   21.322598 C.3        1 MOL1         0.0252
       6    H4      20.185540   19.912798   20.897576 H          1 MOL1         0.0971
       7    H5      21.470710   19.375529   21.997052 H          1 MOL1         0.0971
       8    C2      19.660797   18.190672   22.105307 C.3        1 MOL1        -0.1369
       9    H6      18.942649   17.758177   21.395988 H          1 MOL1         0.0997
      10    H7      20.174731   17.344631   22.580569 H          1 MOL1         0.0997
      11    C3      18.873254   18.988536   23.175401 C.3        1 MOL1        -0.1329
      12    H8      18.118561   18.312817   23.601303 H          1 MOL1         0.0997
      13    H9      18.308204   19.802866   22.701127 H          1 MOL1         0.0997
      14    C4      19.733027   19.541900   24.341493 C.3        1 MOL1        -0.1305
      15    H10     19.096170   19.616105   25.234247 H          1 MOL1         0.0997
      16    H11     20.530343   18.830535   24.598372 H          1 MOL1         0.0997
      17    C5      20.330729   20.942568   24.069982 C.3        1 MOL1        -0.2320
      18    H12     21.051876   20.934416   23.246116 H          1 MOL1         0.1008
      19    H13     19.542475   21.666446   23.825730 H          1 MOL1         0.1008
      20    H14     20.855850   21.312328   24.960212 H          1 MOL1         0.1008
@<TRIPOS>BOND
    1     1     2    1
    2     1     3    1
    3     1     4    1
    4     1     5    1
    5     5     6    1
    6     5     7    1
    7     5     8    1
    8     8     9    1
    9     8    10    1
   10     8    11    1
   11    11    12    1
   12    11    13    1
   13    11    14    1
   14    14    15    1
   15    14    16    1
   16    14    17    1
   17    17    18    1
   18    17    19    1
   19    17    20    1
@<TRIPOS>SUBSTRUCTURE
       1 MOL1            1 RESIDUE      1      MOL     
@<SCITEGIC>MOL_PROPERTY
VConf Rank
SciTegic.value.IntegerValue
344

@<SCITEGIC>MOL_PROPERTY
Conf_Id
SciTegic.value.IntegerValue
61

@<SCITEGIC>MOL_PROPERTY
Delta U+W
SciTegic.value.DoubleValue
2.669

@<SCITEGIC>MOL_PROPERTY
U+W
SciTegic.value.DoubleValue
-9.108

@<SCITEGIC>MOL_PROPERTY
Grad RMS
SciTegic.value.DoubleValue
0.000000

@<SCITEGIC>MOL_PROPERTY
U
SciTegic.value.DoubleValue
48.916

@<SCITEGIC>MOL_PROPERTY
W
SciTegic.value.DoubleValue
-58.025

@<SCITEGIC>MOL_PROPERTY
W(PB)
SciTegic.value.DoubleValue
-59.935

@<SCITEGIC>MOL_PROPERTY
W(SA)
SciTegic.value.DoubleValue
1.911

@<SCITEGIC>MOL_PROPERTY
Valence
SciTegic.value.DoubleValue
3.785

@<SCITEGIC>MOL_PROPERTY
Coulomb
SciTegic.value.DoubleValue
44.716

@<SCITEGIC>MOL_PROPERTY
VdW
SciTegic.value.DoubleValue
0.415

@<SCITEGIC>MOL_PROPERTY
VdW6
SciTegic.value.DoubleValue
-4.836

@<SCITEGIC>MOL_PROPERTY
VdW12
SciTegic.value.DoubleValue
5.251

@<SCITEGIC>MOL_PROPERTY
Bond
SciTegic.value.DoubleValue
0.175

@<SCITEGIC>MOL_PROPERTY
Angle
SciTegic.value.DoubleValue
1.195

@<SCITEGIC>MOL_PROPERTY
Pdih
SciTegic.value.DoubleValue
2.415

@<SCITEGIC>MOL_PROPERTY
Idih
SciTegic.value.DoubleValue
0.000

@<SCITEGIC>MOL_PROPERTY
Tether
SciTegic.value.DoubleValue
0.000

@<TRIPOS>MOLECULE
guest-s11_confgen4.mol2 : confsearch ligand conformer 345
          20          19           1
SMALL
USER_CHARGES
 
@<TRIPOS>ATOM
       1    N1      20.519025   20.129812   24.412134 N.4        1 MOL1        -0.5919
       2    H1      21.205682   20.302005   25.154087 H          1 MOL1         0.3682
       3    H2      19.641299   20.564435   24.713801 H          1 MOL1         0.3682
       4    H3      20.359905   19.119578   24.378474 H          1 MOL1         0.3682
       5    C1      20.986787   20.675138   23.076324 C.3        1 MOL1         0.0252
       6    H4      21.951372   20.221607   22.832969 H          1 MOL1         0.0971
       7    H5      21.142342   21.749353   23.208328 H          1 MOL1         0.0971
       8    C2      19.994984   20.451827   21.915318 C.3        1 MOL1        -0.1369
       9    H6      18.969731   20.656117   22.251377 H          1 MOL1         0.0997
      10    H7      20.212640   21.200522   21.142045 H          1 MOL1         0.0997
      11    C3      20.078738   19.051005   21.256187 C.3        1 MOL1        -0.1329
      12    H8      21.095703   18.886534   20.873830 H          1 MOL1         0.0997
      13    H9      19.418152   19.046597   20.378072 H          1 MOL1         0.0997
      14    C4      19.681532   17.880104   22.185449 C.3        1 MOL1        -0.1305
      15    H10     20.418982   17.772170   22.990662 H          1 MOL1         0.0997
      16    H11     18.710559   18.089130   22.656045 H          1 MOL1         0.0997
      17    C5      19.597545   16.545590   21.414062 C.3        1 MOL1        -0.2320
      18    H12     19.324380   15.724016   22.088931 H          1 MOL1         0.1008
      19    H13     18.840494   16.594151   20.620501 H          1 MOL1         0.1008
      20    H14     20.561444   16.295338   20.951954 H          1 MOL1         0.1008
@<TRIPOS>BOND
    1     1     2    1
    2     1     3    1
    3     1     4    1
    4     1     5    1
    5     5     6    1
    6     5     7    1
    7     5     8    1
    8     8     9    1
    9     8    10    1
   10     8    11    1
   11    11    12    1
   12    11    13    1
   13    11    14    1
   14    14    15    1
   15    14    16    1
   16    14    17    1
   17    17    18    1
   18    17    19    1
   19    17    20    1
@<TRIPOS>SUBSTRUCTURE
       1 MOL1            1 RESIDUE      1      MOL     
@<SCITEGIC>MOL_PROPERTY
VConf Rank
SciTegic.value.IntegerValue
345

@<SCITEGIC>MOL_PROPERTY
Conf_Id
SciTegic.value.IntegerValue
69

@<SCITEGIC>MOL_PROPERTY
Delta U+W
SciTegic.value.DoubleValue
2.811

@<SCITEGIC>MOL_PROPERTY
U+W
SciTegic.value.DoubleValue
-8.967

@<SCITEGIC>MOL_PROPERTY
Grad RMS
SciTegic.value.DoubleValue
0.000000

@<SCITEGIC>MOL_PROPERTY
U
SciTegic.value.DoubleValue
49.216

@<SCITEGIC>MOL_PROPERTY
W
SciTegic.value.DoubleValue
-58.183

@<SCITEGIC>MOL_PROPERTY
W(PB)
SciTegic.value.DoubleValue
-60.064

@<SCITEGIC>MOL_PROPERTY
W(SA)
SciTegic.value.DoubleValue
1.881

@<SCITEGIC>MOL_PROPERTY
Valence
SciTegic.value.DoubleValue
2.929

@<SCITEGIC>MOL_PROPERTY
Coulomb
SciTegic.value.DoubleValue
46.006

@<SCITEGIC>MOL_PROPERTY
VdW
SciTegic.value.DoubleValue
0.281

@<SCITEGIC>MOL_PROPERTY
VdW6
SciTegic.value.DoubleValue
-4.909

@<SCITEGIC>MOL_PROPERTY
VdW12
SciTegic.value.DoubleValue
5.190

@<SCITEGIC>MOL_PROPERTY
Bond
SciTegic.value.DoubleValue
0.156

@<SCITEGIC>MOL_PROPERTY
Angle
SciTegic.value.DoubleValue
0.974

@<SCITEGIC>MOL_PROPERTY
Pdih
SciTegic.value.DoubleValue
1.799

@<SCITEGIC>MOL_PROPERTY
Idih
SciTegic.value.DoubleValue
0.000

@<SCITEGIC>MOL_PROPERTY
Tether
SciTegic.value.DoubleValue
0.000

@<TRIPOS>MOLECULE
guest-s11_confgen4.mol2 : confsearch ligand conformer 346
          20          19           1
SMALL
USER_CHARGES
 
@<TRIPOS>ATOM
       1    N1      21.633979   17.626250   21.736510 N.4        1 MOL1        -0.5919
       2    H1      20.788012   17.341913   22.237030 H          1 MOL1         0.3682
       3    H2      21.475803   17.435184   20.742137 H          1 MOL1         0.3682
       4    H3      22.388632   17.002714   22.042032 H          1 MOL1         0.3682
       5    C1      21.975434   19.083553   21.981960 C.3        1 MOL1         0.0252
       6    H4      22.891682   19.293826   21.423541 H          1 MOL1         0.0971
       7    H5      22.190054   19.217076   23.045656 H          1 MOL1         0.0971
       8    C2      20.880427   20.076926   21.539638 C.3        1 MOL1        -0.1369
       9    H6      21.360256   21.050954   21.375612 H          1 MOL1         0.0997
      10    H7      20.470158   19.776281   20.566444 H          1 MOL1         0.0997
      11    C3      19.738455   20.278050   22.568822 C.3        1 MOL1        -0.1329
      12    H8      19.086734   21.083550   22.202887 H          1 MOL1         0.0997
      13    H9      20.160323   20.634641   23.518735 H          1 MOL1         0.0997
      14    C4      18.878466   19.018650   22.826979 C.3        1 MOL1        -0.1305
      15    H10     18.541303   18.593800   21.871067 H          1 MOL1         0.0997
      16    H11     19.477655   18.251305   23.332948 H          1 MOL1         0.0997
      17    C5      17.649381   19.339693   23.704075 C.3        1 MOL1        -0.2320
      18    H12     16.997597   20.076947   23.217395 H          1 MOL1         0.1008
      19    H13     17.055459   18.434547   23.885785 H          1 MOL1         0.1008
      20    H14     17.954264   19.743523   24.678364 H          1 MOL1         0.1008
@<TRIPOS>BOND
    1     1     2    1
    2     1     3    1
    3     1     4    1
    4     1     5    1
    5     5     6    1
    6     5     7    1
    7     5     8    1
    8     8     9    1
    9     8    10    1
   10     8    11    1
   11    11    12    1
   12    11    13    1
   13    11    14    1
   14    14    15    1
   15    14    16    1
   16    14    17    1
   17    17    18    1
   18    17    19    1
   19    17    20    1
@<TRIPOS>SUBSTRUCTURE
       1 MOL1            1 RESIDUE      1      MOL     
@<SCITEGIC>MOL_PROPERTY
VConf Rank
SciTegic.value.IntegerValue
346

@<SCITEGIC>MOL_PROPERTY
Conf_Id
SciTegic.value.IntegerValue
26

@<SCITEGIC>MOL_PROPERTY
Delta U+W
SciTegic.value.DoubleValue
2.809

@<SCITEGIC>MOL_PROPERTY
U+W
SciTegic.value.DoubleValue
-8.969

@<SCITEGIC>MOL_PROPERTY
Grad RMS
SciTegic.value.DoubleValue
0.000000

@<SCITEGIC>MOL_PROPERTY
U
SciTegic.value.DoubleValue
49.216

@<SCITEGIC>MOL_PROPERTY
W
SciTegic.value.DoubleValue
-58.185

@<SCITEGIC>MOL_PROPERTY
W(PB)
SciTegic.value.DoubleValue
-60.088

@<SCITEGIC>MOL_PROPERTY
W(SA)
SciTegic.value.DoubleValue
1.903

@<SCITEGIC>MOL_PROPERTY
Valence
SciTegic.value.DoubleValue
2.929

@<SCITEGIC>MOL_PROPERTY
Coulomb
SciTegic.value.DoubleValue
46.006

@<SCITEGIC>MOL_PROPERTY
VdW
SciTegic.value.DoubleValue
0.281

@<SCITEGIC>MOL_PROPERTY
VdW6
SciTegic.value.DoubleValue
-4.909

@<SCITEGIC>MOL_PROPERTY
VdW12
SciTegic.value.DoubleValue
5.190

@<SCITEGIC>MOL_PROPERTY
Bond
SciTegic.value.DoubleValue
0.156

@<SCITEGIC>MOL_PROPERTY
Angle
SciTegic.value.DoubleValue
0.974

@<SCITEGIC>MOL_PROPERTY
Pdih
SciTegic.value.DoubleValue
1.799

@<SCITEGIC>MOL_PROPERTY
Idih
SciTegic.value.DoubleValue
0.000

@<SCITEGIC>MOL_PROPERTY
Tether
SciTegic.value.DoubleValue
0.000

@<TRIPOS>MOLECULE
guest-s11_confgen4.mol2 : confsearch ligand conformer 347
          20          19           1
SMALL
USER_CHARGES
 
@<TRIPOS>ATOM
       1    N1      19.827309   17.983374   20.378226 N.4        1 MOL1        -0.5919
       2    H1      20.563730   18.678251   20.224054 H          1 MOL1         0.3682
       3    H2      20.262060   17.058830   20.299190 H          1 MOL1         0.3682
       4    H3      19.165149   18.069276   19.600103 H          1 MOL1         0.3682
       5    C1      19.148038   18.174083   21.720322 C.3        1 MOL1         0.0252
       6    H4      18.357857   17.422933   21.803357 H          1 MOL1         0.0971
       7    H5      18.679045   19.161472   21.726690 H          1 MOL1         0.0971
       8    C2      20.104853   18.045354   22.922914 C.3        1 MOL1        -0.1369
       9    H6      19.520892   18.119899   23.849177 H          1 MOL1         0.0997
      10    H7      20.544242   17.039092   22.926279 H          1 MOL1         0.0997
      11    C3      21.243115   19.099444   22.938703 C.3        1 MOL1        -0.1329
      12    H8      21.920324   18.915756   22.093804 H          1 MOL1         0.0997
      13    H9      21.849658   18.951177   23.842762 H          1 MOL1         0.0997
      14    C4      20.765319   20.573270   22.887927 C.3        1 MOL1        -0.1305
      15    H10     21.647996   21.228017   22.881755 H          1 MOL1         0.0997
      16    H11     20.237690   20.769864   21.944818 H          1 MOL1         0.0997
      17    C5      19.862543   20.966410   24.079263 C.3        1 MOL1        -0.2320
      18    H12     20.361067   20.763923   25.036047 H          1 MOL1         0.1008
      19    H13     19.625156   22.037551   24.044778 H          1 MOL1         0.1008
      20    H14     18.912830   20.417418   24.063271 H          1 MOL1         0.1008
@<TRIPOS>BOND
    1     1     2    1
    2     1     3    1
    3     1     4    1
    4     1     5    1
    5     5     6    1
    6     5     7    1
    7     5     8    1
    8     8     9    1
    9     8    10    1
   10     8    11    1
   11    11    12    1
   12    11    13    1
   13    11    14    1
   14    14    15    1
   15    14    16    1
   16    14    17    1
   17    17    18    1
   18    17    19    1
   19    17    20    1
@<TRIPOS>SUBSTRUCTURE
       1 MOL1            1 RESIDUE      1      MOL     
@<SCITEGIC>MOL_PROPERTY
VConf Rank
SciTegic.value.IntegerValue
347

@<SCITEGIC>MOL_PROPERTY
Conf_Id
SciTegic.value.IntegerValue
2

@<SCITEGIC>MOL_PROPERTY
Delta U+W
SciTegic.value.DoubleValue
0.994

@<SCITEGIC>MOL_PROPERTY
U+W
SciTegic.value.DoubleValue
-10.784

@<SCITEGIC>MOL_PROPERTY
Grad RMS
SciTegic.value.DoubleValue
0.000000

@<SCITEGIC>MOL_PROPERTY
U
SciTegic.value.DoubleValue
47.562

@<SCITEGIC>MOL_PROPERTY
W
SciTegic.value.DoubleValue
-58.346

@<SCITEGIC>MOL_PROPERTY
W(PB)
SciTegic.value.DoubleValue
-60.221

@<SCITEGIC>MOL_PROPERTY
W(SA)
SciTegic.value.DoubleValue
1.875

@<SCITEGIC>MOL_PROPERTY
Valence
SciTegic.value.DoubleValue
2.149

@<SCITEGIC>MOL_PROPERTY
Coulomb
SciTegic.value.DoubleValue
45.034

@<SCITEGIC>MOL_PROPERTY
VdW
SciTegic.value.DoubleValue
0.378

@<SCITEGIC>MOL_PROPERTY
VdW6
SciTegic.value.DoubleValue
-5.599

@<SCITEGIC>MOL_PROPERTY
VdW12
SciTegic.value.DoubleValue
5.977

@<SCITEGIC>MOL_PROPERTY
Bond
SciTegic.value.DoubleValue
0.185

@<SCITEGIC>MOL_PROPERTY
Angle
SciTegic.value.DoubleValue
0.935

@<SCITEGIC>MOL_PROPERTY
Pdih
SciTegic.value.DoubleValue
1.028

@<SCITEGIC>MOL_PROPERTY
Idih
SciTegic.value.DoubleValue
0.000

@<SCITEGIC>MOL_PROPERTY
Tether
SciTegic.value.DoubleValue
0.000

@<TRIPOS>MOLECULE
guest-s11_confgen4.mol2 : confsearch ligand conformer 348
          20          19           1
SMALL
USER_CHARGES
 
@<TRIPOS>ATOM
       1    N1      18.935187   18.650544   24.497411 N.4        1 MOL1        -0.5919
       2    H1      18.746386   19.450134   25.109822 H          1 MOL1         0.3682
       3    H2      18.254504   18.687427   23.733048 H          1 MOL1         0.3682
       4    H3      18.732391   17.804569   25.040099 H          1 MOL1         0.3682
       5    C1      20.360518   18.660594   23.980376 C.3        1 MOL1         0.0252
       6    H4      20.504945   17.769220   23.364318 H          1 MOL1         0.0971
       7    H5      21.028262   18.588208   24.843155 H          1 MOL1         0.0971
       8    C2      20.714506   19.919880   23.163566 C.3        1 MOL1        -0.1369
       9    H6      20.598804   20.806090   23.801439 H          1 MOL1         0.0997
      10    H7      21.778200   19.880617   22.896087 H          1 MOL1         0.0997
      11    C3      19.861206   20.099604   21.880378 C.3        1 MOL1        -0.1329
      12    H8      20.205134   20.998389   21.350191 H          1 MOL1         0.0997
      13    H9      18.819196   20.302051   22.162222 H          1 MOL1         0.0997
      14    C4      19.892495   18.895418   20.904676 C.3        1 MOL1        -0.1305
      15    H10     19.462097   18.005904   21.384279 H          1 MOL1         0.0997
      16    H11     19.241593   19.120964   20.048343 H          1 MOL1         0.0997
      17    C5      21.309046   18.567978   20.380265 C.3        1 MOL1        -0.2320
      18    H12     21.968171   18.225382   21.187597 H          1 MOL1         0.1008
      19    H13     21.265673   17.769445   19.628368 H          1 MOL1         0.1008
      20    H14     21.768897   19.446857   19.910086 H          1 MOL1         0.1008
@<TRIPOS>BOND
    1     1     2    1
    2     1     3    1
    3     1     4    1
    4     1     5    1
    5     5     6    1
    6     5     7    1
    7     5     8    1
    8     8     9    1
    9     8    10    1
   10     8    11    1
   11    11    12    1
   12    11    13    1
   13    11    14    1
   14    14    15    1
   15    14    16    1
   16    14    17    1
   17    17    18    1
   18    17    19    1
   19    17    20    1
@<TRIPOS>SUBSTRUCTURE
       1 MOL1            1 RESIDUE      1      MOL     
@<SCITEGIC>MOL_PROPERTY
VConf Rank
SciTegic.value.IntegerValue
348

@<SCITEGIC>MOL_PROPERTY
Conf_Id
SciTegic.value.IntegerValue
1

@<SCITEGIC>MOL_PROPERTY
Delta U+W
SciTegic.value.DoubleValue
1.032

@<SCITEGIC>MOL_PROPERTY
U+W
SciTegic.value.DoubleValue
-10.746

@<SCITEGIC>MOL_PROPERTY
Grad RMS
SciTegic.value.DoubleValue
0.000000

@<SCITEGIC>MOL_PROPERTY
U
SciTegic.value.DoubleValue
47.562

@<SCITEGIC>MOL_PROPERTY
W
SciTegic.value.DoubleValue
-58.308

@<SCITEGIC>MOL_PROPERTY
W(PB)
SciTegic.value.DoubleValue
-60.184

@<SCITEGIC>MOL_PROPERTY
W(SA)
SciTegic.value.DoubleValue
1.877

@<SCITEGIC>MOL_PROPERTY
Valence
SciTegic.value.DoubleValue
2.149

@<SCITEGIC>MOL_PROPERTY
Coulomb
SciTegic.value.DoubleValue
45.035

@<SCITEGIC>MOL_PROPERTY
VdW
SciTegic.value.DoubleValue
0.378

@<SCITEGIC>MOL_PROPERTY
VdW6
SciTegic.value.DoubleValue
-5.599

@<SCITEGIC>MOL_PROPERTY
VdW12
SciTegic.value.DoubleValue
5.978

@<SCITEGIC>MOL_PROPERTY
Bond
SciTegic.value.DoubleValue
0.185

@<SCITEGIC>MOL_PROPERTY
Angle
SciTegic.value.DoubleValue
0.935

@<SCITEGIC>MOL_PROPERTY
Pdih
SciTegic.value.DoubleValue
1.028

@<SCITEGIC>MOL_PROPERTY
Idih
SciTegic.value.DoubleValue
0.000

@<SCITEGIC>MOL_PROPERTY
Tether
SciTegic.value.DoubleValue
0.000

@<TRIPOS>MOLECULE
guest-s11_confgen4.mol2 : confsearch ligand conformer 349
          20          19           1
SMALL
USER_CHARGES
 
@<TRIPOS>ATOM
       1    N1      22.275315   20.243396   22.649567 N.4        1 MOL1        -0.5919
       2    H1      22.270336   21.243463   22.873021 H          1 MOL1         0.3682
       3    H2      22.120401   19.736539   23.525799 H          1 MOL1         0.3682
       4    H3      23.223429   20.013213   22.334223 H          1 MOL1         0.3682
       5    C1      21.233832   19.893389   21.604309 C.3        1 MOL1         0.0252
       6    H4      21.315236   18.826059   21.392881 H          1 MOL1         0.0971
       7    H5      21.489613   20.437339   20.690953 H          1 MOL1         0.0971
       8    C2      19.790321   20.250647   22.018262 C.3        1 MOL1        -0.1369
       9    H6      19.753799   21.327321   22.231008 H          1 MOL1         0.0997
      10    H7      19.117285   20.090090   21.165699 H          1 MOL1         0.0997
      11    C3      19.258396   19.476432   23.254372 C.3        1 MOL1        -0.1329
      12    H8      18.450386   20.071616   23.701922 H          1 MOL1         0.0997
      13    H9      20.032290   19.405380   24.029461 H          1 MOL1         0.0997
      14    C4      18.682759   18.069276   22.950092 C.3        1 MOL1        -0.1305
      15    H10     18.256884   17.663387   23.878441 H          1 MOL1         0.0997
      16    H11     17.843928   18.156353   22.245420 H          1 MOL1         0.0997
      17    C5      19.712741   17.058058   22.400087 C.3        1 MOL1        -0.2320
      18    H12     20.616863   17.031131   23.021857 H          1 MOL1         0.1008
      19    H13     19.285378   16.047067   22.386409 H          1 MOL1         0.1008
      20    H14     20.000097   17.300605   21.370208 H          1 MOL1         0.1008
@<TRIPOS>BOND
    1     1     2    1
    2     1     3    1
    3     1     4    1
    4     1     5    1
    5     5     6    1
    6     5     7    1
    7     5     8    1
    8     8     9    1
    9     8    10    1
   10     8    11    1
   11    11    12    1
   12    11    13    1
   13    11    14    1
   14    14    15    1
   15    14    16    1
   16    14    17    1
   17    17    18    1
   18    17    19    1
   19    17    20    1
@<TRIPOS>SUBSTRUCTURE
       1 MOL1            1 RESIDUE      1      MOL     
@<SCITEGIC>MOL_PROPERTY
VConf Rank
SciTegic.value.IntegerValue
349

@<SCITEGIC>MOL_PROPERTY
Conf_Id
SciTegic.value.IntegerValue
80

@<SCITEGIC>MOL_PROPERTY
Delta U+W
SciTegic.value.DoubleValue
2.920

@<SCITEGIC>MOL_PROPERTY
U+W
SciTegic.value.DoubleValue
-8.857

@<SCITEGIC>MOL_PROPERTY
Grad RMS
SciTegic.value.DoubleValue
0.000000

@<SCITEGIC>MOL_PROPERTY
U
SciTegic.value.DoubleValue
49.434

@<SCITEGIC>MOL_PROPERTY
W
SciTegic.value.DoubleValue
-58.292

@<SCITEGIC>MOL_PROPERTY
W(PB)
SciTegic.value.DoubleValue
-60.170

@<SCITEGIC>MOL_PROPERTY
W(SA)
SciTegic.value.DoubleValue
1.879

@<SCITEGIC>MOL_PROPERTY
Valence
SciTegic.value.DoubleValue
3.798

@<SCITEGIC>MOL_PROPERTY
Coulomb
SciTegic.value.DoubleValue
45.253

@<SCITEGIC>MOL_PROPERTY
VdW
SciTegic.value.DoubleValue
0.384

@<SCITEGIC>MOL_PROPERTY
VdW6
SciTegic.value.DoubleValue
-5.595

@<SCITEGIC>MOL_PROPERTY
VdW12
SciTegic.value.DoubleValue
5.979

@<SCITEGIC>MOL_PROPERTY
Bond
SciTegic.value.DoubleValue
0.198

@<SCITEGIC>MOL_PROPERTY
Angle
SciTegic.value.DoubleValue
1.368

@<SCITEGIC>MOL_PROPERTY
Pdih
SciTegic.value.DoubleValue
2.231

@<SCITEGIC>MOL_PROPERTY
Idih
SciTegic.value.DoubleValue
0.000

@<SCITEGIC>MOL_PROPERTY
Tether
SciTegic.value.DoubleValue
0.000

@<TRIPOS>MOLECULE
guest-s11_confgen4.mol2 : confsearch ligand conformer 350
          20          19           1
SMALL
USER_CHARGES
 
@<TRIPOS>ATOM
       1    N1      21.576281   18.238298   20.865921 N.4        1 MOL1        -0.5919
       2    H1      21.701970   18.724556   19.972699 H          1 MOL1         0.3682
       3    H2      22.290579   17.503922   20.908539 H          1 MOL1         0.3682
       4    H3      20.666810   17.768990   20.829885 H          1 MOL1         0.3682
       5    C1      21.674160   19.187928   22.044216 C.3        1 MOL1         0.0252
       6    H4      22.680809   19.614725   22.039195 H          1 MOL1         0.0971
       7    H5      21.562803   18.602302   22.958086 H          1 MOL1         0.0971
       8    C2      20.639295   20.332751   22.010131 C.3        1 MOL1        -0.1369
       9    H6      20.857324   21.044136   22.817603 H          1 MOL1         0.0997
      10    H7      20.778277   20.889461   21.073874 H          1 MOL1         0.0997
      11    C3      19.159260   19.873851   22.106231 C.3        1 MOL1        -0.1329
      12    H8      18.988679   18.983749   21.487086 H          1 MOL1         0.0997
      13    H9      18.533494   20.661541   21.664207 H          1 MOL1         0.0997
      14    C4      18.641134   19.624657   23.546193 C.3        1 MOL1        -0.1305
      15    H10     18.725604   20.548374   24.135595 H          1 MOL1         0.0997
      16    H11     17.567051   19.398220   23.491236 H          1 MOL1         0.0997
      17    C5      19.347498   18.472097   24.293576 C.3        1 MOL1        -0.2320
      18    H12     20.370940   18.746506   24.575209 H          1 MOL1         0.1008
      19    H13     18.810748   18.232700   25.220678 H          1 MOL1         0.1008
      20    H14     19.381811   17.561483   23.681722 H          1 MOL1         0.1008
@<TRIPOS>BOND
    1     1     2    1
    2     1     3    1
    3     1     4    1
    4     1     5    1
    5     5     6    1
    6     5     7    1
    7     5     8    1
    8     8     9    1
    9     8    10    1
   10     8    11    1
   11    11    12    1
   12    11    13    1
   13    11    14    1
   14    14    15    1
   15    14    16    1
   16    14    17    1
   17    17    18    1
   18    17    19    1
   19    17    20    1
@<TRIPOS>SUBSTRUCTURE
       1 MOL1            1 RESIDUE      1      MOL     
@<SCITEGIC>MOL_PROPERTY
VConf Rank
SciTegic.value.IntegerValue
350

@<SCITEGIC>MOL_PROPERTY
Conf_Id
SciTegic.value.IntegerValue
65

@<SCITEGIC>MOL_PROPERTY
Delta U+W
SciTegic.value.DoubleValue
2.949

@<SCITEGIC>MOL_PROPERTY
U+W
SciTegic.value.DoubleValue
-8.829

@<SCITEGIC>MOL_PROPERTY
Grad RMS
SciTegic.value.DoubleValue
0.000000

@<SCITEGIC>MOL_PROPERTY
U
SciTegic.value.DoubleValue
49.435

@<SCITEGIC>MOL_PROPERTY
W
SciTegic.value.DoubleValue
-58.263

@<SCITEGIC>MOL_PROPERTY
W(PB)
SciTegic.value.DoubleValue
-60.125

@<SCITEGIC>MOL_PROPERTY
W(SA)
SciTegic.value.DoubleValue
1.862

@<SCITEGIC>MOL_PROPERTY
Valence
SciTegic.value.DoubleValue
3.797

@<SCITEGIC>MOL_PROPERTY
Coulomb
SciTegic.value.DoubleValue
45.253

@<SCITEGIC>MOL_PROPERTY
VdW
SciTegic.value.DoubleValue
0.384

@<SCITEGIC>MOL_PROPERTY
VdW6
SciTegic.value.DoubleValue
-5.596

@<SCITEGIC>MOL_PROPERTY
VdW12
SciTegic.value.DoubleValue
5.980

@<SCITEGIC>MOL_PROPERTY
Bond
SciTegic.value.DoubleValue
0.198

@<SCITEGIC>MOL_PROPERTY
Angle
SciTegic.value.DoubleValue
1.369

@<SCITEGIC>MOL_PROPERTY
Pdih
SciTegic.value.DoubleValue
2.230

@<SCITEGIC>MOL_PROPERTY
Idih
SciTegic.value.DoubleValue
0.000

@<SCITEGIC>MOL_PROPERTY
Tether
SciTegic.value.DoubleValue
0.000

@<TRIPOS>MOLECULE
guest-s11_confgen4.mol2 : confsearch ligand conformer 351
          20          19           1
SMALL
USER_CHARGES
 
@<TRIPOS>ATOM
       1    N1      18.488856   20.131135   21.784787 N.4        1 MOL1        -0.5919
       2    H1      17.472704   20.044983   21.892929 H          1 MOL1         0.3682
       3    H2      18.878862   20.333989   22.710244 H          1 MOL1         0.3682
       4    H3      18.657258   20.952944   21.195995 H          1 MOL1         0.3682
       5    C1      19.100615   18.877775   21.189475 C.3        1 MOL1         0.0252
       6    H4      18.638282   18.731094   20.209550 H          1 MOL1         0.0971
       7    H5      18.836326   18.024825   21.820210 H          1 MOL1         0.0971
       8    C2      20.631665   18.948274   21.018223 C.3        1 MOL1        -0.1369
       9    H6      20.913446   18.229052   20.237755 H          1 MOL1         0.0997
      10    H7      20.917428   19.935397   20.631266 H          1 MOL1         0.0997
      11    C3      21.455539   18.612936   22.290481 C.3        1 MOL1        -0.1329
      12    H8      22.517973   18.647512   22.011981 H          1 MOL1         0.0997
      13    H9      21.266443   17.574534   22.596144 H          1 MOL1         0.0997
      14    C4      21.243597   19.568204   23.492588 C.3        1 MOL1        -0.1305
      15    H10     22.201271   19.685771   24.019177 H          1 MOL1         0.0997
      16    H11     20.974610   20.573630   23.141835 H          1 MOL1         0.0997
      17    C5      20.205647   19.041311   24.511833 C.3        1 MOL1        -0.2320
      18    H12     19.235341   18.828493   24.050518 H          1 MOL1         0.1008
      19    H13     20.559132   18.111833   24.977065 H          1 MOL1         0.1008
      20    H14     20.046434   19.772526   25.315050 H          1 MOL1         0.1008
@<TRIPOS>BOND
    1     1     2    1
    2     1     3    1
    3     1     4    1
    4     1     5    1
    5     5     6    1
    6     5     7    1
    7     5     8    1
    8     8     9    1
    9     8    10    1
   10     8    11    1
   11    11    12    1
   12    11    13    1
   13    11    14    1
   14    14    15    1
   15    14    16    1
   16    14    17    1
   17    17    18    1
   18    17    19    1
   19    17    20    1
@<TRIPOS>SUBSTRUCTURE
       1 MOL1            1 RESIDUE      1      MOL     
@<SCITEGIC>MOL_PROPERTY
VConf Rank
SciTegic.value.IntegerValue
351

@<SCITEGIC>MOL_PROPERTY
Conf_Id
SciTegic.value.IntegerValue
77

@<SCITEGIC>MOL_PROPERTY
Delta U+W
SciTegic.value.DoubleValue
5.366

@<SCITEGIC>MOL_PROPERTY
U+W
SciTegic.value.DoubleValue
-6.412

@<SCITEGIC>MOL_PROPERTY
Grad RMS
SciTegic.value.DoubleValue
0.000000

@<SCITEGIC>MOL_PROPERTY
U
SciTegic.value.DoubleValue
51.542

@<SCITEGIC>MOL_PROPERTY
W
SciTegic.value.DoubleValue
-57.954

@<SCITEGIC>MOL_PROPERTY
W(PB)
SciTegic.value.DoubleValue
-59.811

@<SCITEGIC>MOL_PROPERTY
W(SA)
SciTegic.value.DoubleValue
1.857

@<SCITEGIC>MOL_PROPERTY
Valence
SciTegic.value.DoubleValue
5.347

@<SCITEGIC>MOL_PROPERTY
Coulomb
SciTegic.value.DoubleValue
45.870

@<SCITEGIC>MOL_PROPERTY
VdW
SciTegic.value.DoubleValue
0.325

@<SCITEGIC>MOL_PROPERTY
VdW6
SciTegic.value.DoubleValue
-6.161

@<SCITEGIC>MOL_PROPERTY
VdW12
SciTegic.value.DoubleValue
6.486

@<SCITEGIC>MOL_PROPERTY
Bond
SciTegic.value.DoubleValue
0.201

@<SCITEGIC>MOL_PROPERTY
Angle
SciTegic.value.DoubleValue
1.484

@<SCITEGIC>MOL_PROPERTY
Pdih
SciTegic.value.DoubleValue
3.662

@<SCITEGIC>MOL_PROPERTY
Idih
SciTegic.value.DoubleValue
0.000

@<SCITEGIC>MOL_PROPERTY
Tether
SciTegic.value.DoubleValue
0.000

@<TRIPOS>MOLECULE
guest-s11_confgen4.mol2 : confsearch ligand conformer 352
          20          19           1
SMALL
USER_CHARGES
 
@<TRIPOS>ATOM
       1    N1      19.163721   20.698195   22.274882 N.4        1 MOL1        -0.5919
       2    H1      18.344341   20.636578   21.662324 H          1 MOL1         0.3682
       3    H2      19.014034   20.046159   23.050876 H          1 MOL1         0.3682
       4    H3      19.171573   21.645343   22.667988 H          1 MOL1         0.3682
       5    C1      20.447400   20.386300   21.530266 C.3        1 MOL1         0.0252
       6    H4      21.291202   20.530199   22.210333 H          1 MOL1         0.0971
       7    H5      20.534087   21.118237   20.722632 H          1 MOL1         0.0971
       8    C2      20.494475   18.966471   20.930034 C.3        1 MOL1        -0.1369
       9    H6      19.524339   18.721782   20.477515 H          1 MOL1         0.0997
      10    H7      21.215356   18.978236   20.101781 H          1 MOL1         0.0997
      11    C3      20.923641   17.845979   21.915010 C.3        1 MOL1        -0.1329
      12    H8      21.950677   18.025582   22.262005 H          1 MOL1         0.0997
      13    H9      20.966782   16.907219   21.345454 H          1 MOL1         0.0997
      14    C4      19.982977   17.628371   23.127577 C.3        1 MOL1        -0.1305
      15    H10     18.951465   17.901806   22.867809 H          1 MOL1         0.0997
      16    H11     19.954028   16.554328   23.359638 H          1 MOL1         0.0997
      17    C5      20.449676   18.374208   24.400267 C.3        1 MOL1        -0.2320
      18    H12     19.727188   18.237856   25.215498 H          1 MOL1         0.1008
      19    H13     21.414917   17.981343   24.745646 H          1 MOL1         0.1008
      20    H14     20.573992   19.449678   24.234424 H          1 MOL1         0.1008
@<TRIPOS>BOND
    1     1     2    1
    2     1     3    1
    3     1     4    1
    4     1     5    1
    5     5     6    1
    6     5     7    1
    7     5     8    1
    8     8     9    1
    9     8    10    1
   10     8    11    1
   11    11    12    1
   12    11    13    1
   13    11    14    1
   14    14    15    1
   15    14    16    1
   16    14    17    1
   17    17    18    1
   18    17    19    1
   19    17    20    1
@<TRIPOS>SUBSTRUCTURE
       1 MOL1            1 RESIDUE      1      MOL     
@<SCITEGIC>MOL_PROPERTY
VConf Rank
SciTegic.value.IntegerValue
352

@<SCITEGIC>MOL_PROPERTY
Conf_Id
SciTegic.value.IntegerValue
67

@<SCITEGIC>MOL_PROPERTY
Delta U+W
SciTegic.value.DoubleValue
5.353

@<SCITEGIC>MOL_PROPERTY
U+W
SciTegic.value.DoubleValue
-6.425

@<SCITEGIC>MOL_PROPERTY
Grad RMS
SciTegic.value.DoubleValue
0.000000

@<SCITEGIC>MOL_PROPERTY
U
SciTegic.value.DoubleValue
51.541

@<SCITEGIC>MOL_PROPERTY
W
SciTegic.value.DoubleValue
-57.966

@<SCITEGIC>MOL_PROPERTY
W(PB)
SciTegic.value.DoubleValue
-59.821

@<SCITEGIC>MOL_PROPERTY
W(SA)
SciTegic.value.DoubleValue
1.855

@<SCITEGIC>MOL_PROPERTY
Valence
SciTegic.value.DoubleValue
5.347

@<SCITEGIC>MOL_PROPERTY
Coulomb
SciTegic.value.DoubleValue
45.870

@<SCITEGIC>MOL_PROPERTY
VdW
SciTegic.value.DoubleValue
0.325

@<SCITEGIC>MOL_PROPERTY
VdW6
SciTegic.value.DoubleValue
-6.161

@<SCITEGIC>MOL_PROPERTY
VdW12
SciTegic.value.DoubleValue
6.486

@<SCITEGIC>MOL_PROPERTY
Bond
SciTegic.value.DoubleValue
0.201

@<SCITEGIC>MOL_PROPERTY
Angle
SciTegic.value.DoubleValue
1.485

@<SCITEGIC>MOL_PROPERTY
Pdih
SciTegic.value.DoubleValue
3.662

@<SCITEGIC>MOL_PROPERTY
Idih
SciTegic.value.DoubleValue
0.000

@<SCITEGIC>MOL_PROPERTY
Tether
SciTegic.value.DoubleValue
0.000

@<TRIPOS>MOLECULE
guest-s11_confgen4.mol2 : confsearch ligand conformer 353
          20          19           1
SMALL
USER_CHARGES
 
@<TRIPOS>ATOM
       1    N1      21.965855   18.032057   20.047785 N.4        1 MOL1        -0.5919
       2    H1      21.239178   17.507917   19.550186 H          1 MOL1         0.3682
       3    H2      22.588899   18.426046   19.334911 H          1 MOL1         0.3682
       4    H3      22.516829   17.351509   20.580394 H          1 MOL1         0.3682
       5    C1      21.378761   19.107776   20.939209 C.3        1 MOL1         0.0252
       6    H4      20.833107   19.811356   20.304580 H          1 MOL1         0.0971
       7    H5      22.206553   19.643085   21.412200 H          1 MOL1         0.0971
       8    C2      20.437489   18.549350   22.021536 C.3        1 MOL1        -0.1369
       9    H6      19.616546   17.999081   21.542656 H          1 MOL1         0.0997
      10    H7      20.985252   17.831382   22.646473 H          1 MOL1         0.0997
      11    C3      19.861437   19.676607   22.907079 C.3        1 MOL1        -0.1329
      12    H8      19.318560   20.395840   22.277969 H          1 MOL1         0.0997
      13    H9      20.685616   20.228295   23.380536 H          1 MOL1         0.0997
      14    C4      18.914536   19.127502   23.997675 C.3        1 MOL1        -0.1305
      15    H10     18.087377   18.576603   23.528245 H          1 MOL1         0.0997
      16    H11     19.454249   18.409160   24.630718 H          1 MOL1         0.0997
      17    C5      18.341395   20.257223   24.879841 C.3        1 MOL1        -0.2320
      18    H12     17.766338   20.974152   24.279394 H          1 MOL1         0.1008
      19    H13     17.671953   19.847930   25.647546 H          1 MOL1         0.1008
      20    H14     19.143860   20.805316   25.390584 H          1 MOL1         0.1008
@<TRIPOS>BOND
    1     1     2    1
    2     1     3    1
    3     1     4    1
    4     1     5    1
    5     5     6    1
    6     5     7    1
    7     5     8    1
    8     8     9    1
    9     8    10    1
   10     8    11    1
   11    11    12    1
   12    11    13    1
   13    11    14    1
   14    14    15    1
   15    14    16    1
   16    14    17    1
   17    17    18    1
   18    17    19    1
   19    17    20    1
@<TRIPOS>SUBSTRUCTURE
       1 MOL1            1 RESIDUE      1      MOL     
@<SCITEGIC>MOL_PROPERTY
VConf Rank
SciTegic.value.IntegerValue
353

@<SCITEGIC>MOL_PROPERTY
Conf_Id
SciTegic.value.IntegerValue
72

@<SCITEGIC>MOL_PROPERTY
Delta U+W
SciTegic.value.DoubleValue
0.000

@<SCITEGIC>MOL_PROPERTY
U+W
SciTegic.value.DoubleValue
-11.778

@<SCITEGIC>MOL_PROPERTY
Grad RMS
SciTegic.value.DoubleValue
0.000000

@<SCITEGIC>MOL_PROPERTY
U
SciTegic.value.DoubleValue
45.772

@<SCITEGIC>MOL_PROPERTY
W
SciTegic.value.DoubleValue
-57.550

@<SCITEGIC>MOL_PROPERTY
W(PB)
SciTegic.value.DoubleValue
-59.511

@<SCITEGIC>MOL_PROPERTY
W(SA)
SciTegic.value.DoubleValue
1.961

@<SCITEGIC>MOL_PROPERTY
Valence
SciTegic.value.DoubleValue
1.299

@<SCITEGIC>MOL_PROPERTY
Coulomb
SciTegic.value.DoubleValue
44.177

@<SCITEGIC>MOL_PROPERTY
VdW
SciTegic.value.DoubleValue
0.297

@<SCITEGIC>MOL_PROPERTY
VdW6
SciTegic.value.DoubleValue
-3.490

@<SCITEGIC>MOL_PROPERTY
VdW12
SciTegic.value.DoubleValue
3.786

@<SCITEGIC>MOL_PROPERTY
Bond
SciTegic.value.DoubleValue
0.096

@<SCITEGIC>MOL_PROPERTY
Angle
SciTegic.value.DoubleValue
0.381

@<SCITEGIC>MOL_PROPERTY
Pdih
SciTegic.value.DoubleValue
0.822

@<SCITEGIC>MOL_PROPERTY
Idih
SciTegic.value.DoubleValue
0.000

@<SCITEGIC>MOL_PROPERTY
Tether
SciTegic.value.DoubleValue
0.000

@<TRIPOS>MOLECULE
guest-s11_confgen4.mol2 : confsearch ligand conformer 354
          20          19           1
SMALL
USER_CHARGES
 
@<TRIPOS>ATOM
       1    N1      21.173534   21.926870   23.051474 N.4        1 MOL1        -0.5919
       2    H1      20.623360   21.989174   23.913891 H          1 MOL1         0.3682
       3    H2      22.123051   21.649168   23.319176 H          1 MOL1         0.3682
       4    H3      21.237983   22.876876   22.670795 H          1 MOL1         0.3682
       5    C1      20.560396   20.962109   22.056552 C.3        1 MOL1         0.0252
       6    H4      21.178558   20.969385   21.154711 H          1 MOL1         0.0971
       7    H5      19.566277   21.334142   21.794207 H          1 MOL1         0.0971
       8    C2      20.449344   19.525005   22.596616 C.3        1 MOL1        -0.1369
       9    H6      21.447711   19.161245   22.873659 H          1 MOL1         0.0997
      10    H7      19.842223   19.532328   23.510628 H          1 MOL1         0.0997
      11    C3      19.821412   18.575788   21.548849 C.3        1 MOL1        -0.1329
      12    H8      20.398912   18.640377   20.616077 H          1 MOL1         0.0997
      13    H9      18.804337   18.913573   21.305854 H          1 MOL1         0.0997
      14    C4      19.780997   17.095864   22.001468 C.3        1 MOL1        -0.1305
      15    H10     19.420815   16.480929   21.164771 H          1 MOL1         0.0997
      16    H11     20.799332   16.746655   22.222652 H          1 MOL1         0.0997
      17    C5      18.870382   16.852214   23.226599 C.3        1 MOL1        -0.2320
      18    H12     17.852307   17.218601   23.041403 H          1 MOL1         0.1008
      19    H13     18.805066   15.779315   23.449249 H          1 MOL1         0.1008
      20    H14     19.258032   17.351278   24.123307 H          1 MOL1         0.1008
@<TRIPOS>BOND
    1     1     2    1
    2     1     3    1
    3     1     4    1
    4     1     5    1
    5     5     6    1
    6     5     7    1
    7     5     8    1
    8     8     9    1
    9     8    10    1
   10     8    11    1
   11    11    12    1
   12    11    13    1
   13    11    14    1
   14    14    15    1
   15    14    16    1
   16    14    17    1
   17    17    18    1
   18    17    19    1
   19    17    20    1
@<TRIPOS>SUBSTRUCTURE
       1 MOL1            1 RESIDUE      1      MOL     
@<SCITEGIC>MOL_PROPERTY
VConf Rank
SciTegic.value.IntegerValue
354

@<SCITEGIC>MOL_PROPERTY
Conf_Id
SciTegic.value.IntegerValue
42

@<SCITEGIC>MOL_PROPERTY
Delta U+W
SciTegic.value.DoubleValue
0.508

@<SCITEGIC>MOL_PROPERTY
U+W
SciTegic.value.DoubleValue
-11.270

@<SCITEGIC>MOL_PROPERTY
Grad RMS
SciTegic.value.DoubleValue
0.000000

@<SCITEGIC>MOL_PROPERTY
U
SciTegic.value.DoubleValue
46.486

@<SCITEGIC>MOL_PROPERTY
W
SciTegic.value.DoubleValue
-57.756

@<SCITEGIC>MOL_PROPERTY
W(PB)
SciTegic.value.DoubleValue
-59.705

@<SCITEGIC>MOL_PROPERTY
W(SA)
SciTegic.value.DoubleValue
1.949

@<SCITEGIC>MOL_PROPERTY
Valence
SciTegic.value.DoubleValue
1.806

@<SCITEGIC>MOL_PROPERTY
Coulomb
SciTegic.value.DoubleValue
44.248

@<SCITEGIC>MOL_PROPERTY
VdW
SciTegic.value.DoubleValue
0.433

@<SCITEGIC>MOL_PROPERTY
VdW6
SciTegic.value.DoubleValue
-4.089

@<SCITEGIC>MOL_PROPERTY
VdW12
SciTegic.value.DoubleValue
4.522

@<SCITEGIC>MOL_PROPERTY
Bond
SciTegic.value.DoubleValue
0.131

@<SCITEGIC>MOL_PROPERTY
Angle
SciTegic.value.DoubleValue
0.628

@<SCITEGIC>MOL_PROPERTY
Pdih
SciTegic.value.DoubleValue
1.047

@<SCITEGIC>MOL_PROPERTY
Idih
SciTegic.value.DoubleValue
0.000

@<SCITEGIC>MOL_PROPERTY
Tether
SciTegic.value.DoubleValue
0.000

@<TRIPOS>MOLECULE
guest-s11_confgen4.mol2 : confsearch ligand conformer 355
          20          19           1
SMALL
USER_CHARGES
 
@<TRIPOS>ATOM
       1    N1      22.259592   17.044358   23.228669 N.4        1 MOL1        -0.5919
       2    H1      21.718343   16.538990   23.937200 H          1 MOL1         0.3682
       3    H2      22.132913   16.547234   22.341452 H          1 MOL1         0.3682
       4    H3      23.247820   16.947846   23.484934 H          1 MOL1         0.3682
       5    C1      21.843441   18.498079   23.128189 C.3        1 MOL1         0.0252
       6    H4      22.478439   18.980068   22.379877 H          1 MOL1         0.0971
       7    H5      22.033495   18.971009   24.095511 H          1 MOL1         0.0971
       8    C2      20.363613   18.678940   22.745219 C.3        1 MOL1        -0.1369
       9    H6      20.180483   18.185568   21.782351 H          1 MOL1         0.0997
      10    H7      19.730266   18.179929   23.490652 H          1 MOL1         0.0997
      11    C3      19.982919   20.175719   22.656560 C.3        1 MOL1        -0.1329
      12    H8      20.584651   20.665233   21.878176 H          1 MOL1         0.0997
      13    H9      20.244374   20.668043   23.603661 H          1 MOL1         0.0997
      14    C4      18.479465   20.415327   22.375698 C.3        1 MOL1        -0.1305
      15    H10     17.874496   19.947597   23.165077 H          1 MOL1         0.0997
      16    H11     18.277565   21.494157   22.433147 H          1 MOL1         0.0997
      17    C5      18.021757   19.896012   20.993544 C.3        1 MOL1        -0.2320
      18    H12     18.091134   18.803061   20.929760 H          1 MOL1         0.1008
      19    H13     16.975484   20.170872   20.807224 H          1 MOL1         0.1008
      20    H14     18.630090   20.327373   20.188018 H          1 MOL1         0.1008
@<TRIPOS>BOND
    1     1     2    1
    2     1     3    1
    3     1     4    1
    4     1     5    1
    5     5     6    1
    6     5     7    1
    7     5     8    1
    8     8     9    1
    9     8    10    1
   10     8    11    1
   11    11    12    1
   12    11    13    1
   13    11    14    1
   14    14    15    1
   15    14    16    1
   16    14    17    1
   17    17    18    1
   18    17    19    1
   19    17    20    1
@<TRIPOS>SUBSTRUCTURE
       1 MOL1            1 RESIDUE      1      MOL     
@<SCITEGIC>MOL_PROPERTY
VConf Rank
SciTegic.value.IntegerValue
355

@<SCITEGIC>MOL_PROPERTY
Conf_Id
SciTegic.value.IntegerValue
41

@<SCITEGIC>MOL_PROPERTY
Delta U+W
SciTegic.value.DoubleValue
0.515

@<SCITEGIC>MOL_PROPERTY
U+W
SciTegic.value.DoubleValue
-11.263

@<SCITEGIC>MOL_PROPERTY
Grad RMS
SciTegic.value.DoubleValue
0.000000

@<SCITEGIC>MOL_PROPERTY
U
SciTegic.value.DoubleValue
46.486

@<SCITEGIC>MOL_PROPERTY
W
SciTegic.value.DoubleValue
-57.749

@<SCITEGIC>MOL_PROPERTY
W(PB)
SciTegic.value.DoubleValue
-59.685

@<SCITEGIC>MOL_PROPERTY
W(SA)
SciTegic.value.DoubleValue
1.936

@<SCITEGIC>MOL_PROPERTY
Valence
SciTegic.value.DoubleValue
1.806

@<SCITEGIC>MOL_PROPERTY
Coulomb
SciTegic.value.DoubleValue
44.248

@<SCITEGIC>MOL_PROPERTY
VdW
SciTegic.value.DoubleValue
0.433

@<SCITEGIC>MOL_PROPERTY
VdW6
SciTegic.value.DoubleValue
-4.089

@<SCITEGIC>MOL_PROPERTY
VdW12
SciTegic.value.DoubleValue
4.522

@<SCITEGIC>MOL_PROPERTY
Bond
SciTegic.value.DoubleValue
0.131

@<SCITEGIC>MOL_PROPERTY
Angle
SciTegic.value.DoubleValue
0.628

@<SCITEGIC>MOL_PROPERTY
Pdih
SciTegic.value.DoubleValue
1.047

@<SCITEGIC>MOL_PROPERTY
Idih
SciTegic.value.DoubleValue
0.000

@<SCITEGIC>MOL_PROPERTY
Tether
SciTegic.value.DoubleValue
0.000

@<TRIPOS>MOLECULE
guest-s11_confgen4.mol2 : confsearch ligand conformer 356
          20          19           1
SMALL
USER_CHARGES
 
@<TRIPOS>ATOM
       1    N1      19.430286   17.293058   24.406129 N.4        1 MOL1        -0.5919
       2    H1      19.629658   16.476780   24.993873 H          1 MOL1         0.3682
       3    H2      19.666132   18.122707   24.958395 H          1 MOL1         0.3682
       4    H3      18.417156   17.309170   24.252824 H          1 MOL1         0.3682
       5    C1      20.198685   17.246631   23.099389 C.3        1 MOL1         0.0252
       6    H4      19.928575   16.317499   22.590121 H          1 MOL1         0.0971
       7    H5      21.265942   17.207659   23.333667 H          1 MOL1         0.0971
       8    C2      19.915887   18.439895   22.165571 C.3        1 MOL1        -0.1369
       9    H6      20.423161   18.250477   21.211421 H          1 MOL1         0.0997
      10    H7      18.841010   18.486767   21.946182 H          1 MOL1         0.0997
      11    C3      20.397527   19.789196   22.755931 C.3        1 MOL1        -0.1329
      12    H8      21.477814   19.742599   22.951577 H          1 MOL1         0.0997
      13    H9      19.914527   19.956169   23.727753 H          1 MOL1         0.0997
      14    C4      20.088802   21.004636   21.847980 C.3        1 MOL1        -0.1305
      15    H10     19.007502   21.063637   21.660431 H          1 MOL1         0.0997
      16    H11     20.357009   21.923979   22.387253 H          1 MOL1         0.0997
      17    C5      20.849512   20.978447   20.502470 C.3        1 MOL1        -0.2320
      18    H12     20.523696   20.143465   19.870081 H          1 MOL1         0.1008
      19    H13     20.669836   21.904954   19.941891 H          1 MOL1         0.1008
      20    H14     21.931816   20.888026   20.661989 H          1 MOL1         0.1008
@<TRIPOS>BOND
    1     1     2    1
    2     1     3    1
    3     1     4    1
    4     1     5    1
    5     5     6    1
    6     5     7    1
    7     5     8    1
    8     8     9    1
    9     8    10    1
   10     8    11    1
   11    11    12    1
   12    11    13    1
   13    11    14    1
   14    14    15    1
   15    14    16    1
   16    14    17    1
   17    17    18    1
   18    17    19    1
   19    17    20    1
@<TRIPOS>SUBSTRUCTURE
       1 MOL1            1 RESIDUE      1      MOL     
@<SCITEGIC>MOL_PROPERTY
VConf Rank
SciTegic.value.IntegerValue
356

@<SCITEGIC>MOL_PROPERTY
Conf_Id
SciTegic.value.IntegerValue
33

@<SCITEGIC>MOL_PROPERTY
Delta U+W
SciTegic.value.DoubleValue
0.703

@<SCITEGIC>MOL_PROPERTY
U+W
SciTegic.value.DoubleValue
-11.075

@<SCITEGIC>MOL_PROPERTY
Grad RMS
SciTegic.value.DoubleValue
0.000000

@<SCITEGIC>MOL_PROPERTY
U
SciTegic.value.DoubleValue
47.080

@<SCITEGIC>MOL_PROPERTY
W
SciTegic.value.DoubleValue
-58.154

@<SCITEGIC>MOL_PROPERTY
W(PB)
SciTegic.value.DoubleValue
-60.053

@<SCITEGIC>MOL_PROPERTY
W(SA)
SciTegic.value.DoubleValue
1.899

@<SCITEGIC>MOL_PROPERTY
Valence
SciTegic.value.DoubleValue
1.943

@<SCITEGIC>MOL_PROPERTY
Coulomb
SciTegic.value.DoubleValue
44.572

@<SCITEGIC>MOL_PROPERTY
VdW
SciTegic.value.DoubleValue
0.565

@<SCITEGIC>MOL_PROPERTY
VdW6
SciTegic.value.DoubleValue
-4.575

@<SCITEGIC>MOL_PROPERTY
VdW12
SciTegic.value.DoubleValue
5.139

@<SCITEGIC>MOL_PROPERTY
Bond
SciTegic.value.DoubleValue
0.158

@<SCITEGIC>MOL_PROPERTY
Angle
SciTegic.value.DoubleValue
0.700

@<SCITEGIC>MOL_PROPERTY
Pdih
SciTegic.value.DoubleValue
1.085

@<SCITEGIC>MOL_PROPERTY
Idih
SciTegic.value.DoubleValue
0.000

@<SCITEGIC>MOL_PROPERTY
Tether
SciTegic.value.DoubleValue
0.000

@<TRIPOS>MOLECULE
guest-s11_confgen4.mol2 : confsearch ligand conformer 357
          20          19           1
SMALL
USER_CHARGES
 
@<TRIPOS>ATOM
       1    N1      18.360441   17.039281   22.136323 N.4        1 MOL1        -0.5919
       2    H1      17.874814   16.204618   22.481291 H          1 MOL1         0.3682
       3    H2      17.734810   17.490030   21.461339 H          1 MOL1         0.3682
       4    H3      19.181241   16.713478   21.617596 H          1 MOL1         0.3682
       5    C1      18.741244   17.976083   23.266613 C.3        1 MOL1         0.0252
       6    H4      19.386573   17.428817   23.959068 H          1 MOL1         0.0971
       7    H5      17.823444   18.243828   23.797230 H          1 MOL1         0.0971
       8    C2      19.453007   19.261206   22.800014 C.3        1 MOL1        -0.1369
       9    H6      18.809802   19.799669   22.091469 H          1 MOL1         0.0997
      10    H7      19.576145   19.915422   23.672050 H          1 MOL1         0.0997
      11    C3      20.834472   18.980393   22.156729 C.3        1 MOL1        -0.1329
      12    H8      20.709715   18.296317   21.306973 H          1 MOL1         0.0997
      13    H9      21.480074   18.461688   22.878955 H          1 MOL1         0.0997
      14    C4      21.548768   20.256545   21.648602 C.3        1 MOL1        -0.1305
      15    H10     22.459110   19.959299   21.109284 H          1 MOL1         0.0997
      16    H11     20.912597   20.771925   20.915433 H          1 MOL1         0.0997
      17    C5      21.938906   21.236481   22.778772 C.3        1 MOL1        -0.2320
      18    H12     22.549763   20.736837   23.541803 H          1 MOL1         0.1008
      19    H13     22.524332   22.073214   22.376153 H          1 MOL1         0.1008
      20    H14     21.054194   21.660606   23.269357 H          1 MOL1         0.1008
@<TRIPOS>BOND
    1     1     2    1
    2     1     3    1
    3     1     4    1
    4     1     5    1
    5     5     6    1
    6     5     7    1
    7     5     8    1
    8     8     9    1
    9     8    10    1
   10     8    11    1
   11    11    12    1
   12    11    13    1
   13    11    14    1
   14    14    15    1
   15    14    16    1
   16    14    17    1
   17    17    18    1
   18    17    19    1
   19    17    20    1
@<TRIPOS>SUBSTRUCTURE
       1 MOL1            1 RESIDUE      1      MOL     
@<SCITEGIC>MOL_PROPERTY
VConf Rank
SciTegic.value.IntegerValue
357

@<SCITEGIC>MOL_PROPERTY
Conf_Id
SciTegic.value.IntegerValue
24

@<SCITEGIC>MOL_PROPERTY
Delta U+W
SciTegic.value.DoubleValue
0.847

@<SCITEGIC>MOL_PROPERTY
U+W
SciTegic.value.DoubleValue
-10.931

@<SCITEGIC>MOL_PROPERTY
Grad RMS
SciTegic.value.DoubleValue
0.000000

@<SCITEGIC>MOL_PROPERTY
U
SciTegic.value.DoubleValue
47.080

@<SCITEGIC>MOL_PROPERTY
W
SciTegic.value.DoubleValue
-58.011

@<SCITEGIC>MOL_PROPERTY
W(PB)
SciTegic.value.DoubleValue
-59.914

@<SCITEGIC>MOL_PROPERTY
W(SA)
SciTegic.value.DoubleValue
1.903

@<SCITEGIC>MOL_PROPERTY
Valence
SciTegic.value.DoubleValue
1.943

@<SCITEGIC>MOL_PROPERTY
Coulomb
SciTegic.value.DoubleValue
44.572

@<SCITEGIC>MOL_PROPERTY
VdW
SciTegic.value.DoubleValue
0.565

@<SCITEGIC>MOL_PROPERTY
VdW6
SciTegic.value.DoubleValue
-4.575

@<SCITEGIC>MOL_PROPERTY
VdW12
SciTegic.value.DoubleValue
5.140

@<SCITEGIC>MOL_PROPERTY
Bond
SciTegic.value.DoubleValue
0.158

@<SCITEGIC>MOL_PROPERTY
Angle
SciTegic.value.DoubleValue
0.700

@<SCITEGIC>MOL_PROPERTY
Pdih
SciTegic.value.DoubleValue
1.085

@<SCITEGIC>MOL_PROPERTY
Idih
SciTegic.value.DoubleValue
0.000

@<SCITEGIC>MOL_PROPERTY
Tether
SciTegic.value.DoubleValue
0.000

@<TRIPOS>MOLECULE
guest-s11_confgen4.mol2 : confsearch ligand conformer 358
          20          19           1
SMALL
USER_CHARGES
 
@<TRIPOS>ATOM
       1    N1      22.498344   20.045697   23.606987 N.4        1 MOL1        -0.5919
       2    H1      23.439318   19.695167   23.399173 H          1 MOL1         0.3682
       3    H2      22.416529   20.962722   23.156883 H          1 MOL1         0.3682
       4    H3      22.456536   20.202036   24.618974 H          1 MOL1         0.3682
       5    C1      21.423507   19.086197   23.137505 C.3        1 MOL1         0.0252
       6    H4      21.588187   18.125477   23.632759 H          1 MOL1         0.0971
       7    H5      21.547469   18.943865   22.060770 H          1 MOL1         0.0971
       8    C2      19.996305   19.583855   23.434247 C.3        1 MOL1        -0.1369
       9    H6      19.895659   19.763151   24.512896 H          1 MOL1         0.0997
      10    H7      19.833012   20.552607   22.945054 H          1 MOL1         0.0997
      11    C3      18.905960   18.576258   22.991651 C.3        1 MOL1        -0.1329
      12    H8      17.918291   18.987107   23.242602 H          1 MOL1         0.0997
      13    H9      19.009435   17.656170   23.583449 H          1 MOL1         0.0997
      14    C4      18.933630   18.206720   21.486361 C.3        1 MOL1        -0.1305
      15    H10     19.874578   17.697214   21.237768 H          1 MOL1         0.0997
      16    H11     18.135439   17.477148   21.290153 H          1 MOL1         0.0997
      17    C5      18.737870   19.421963   20.551551 C.3        1 MOL1        -0.2320
      18    H12     18.672040   19.095703   19.505546 H          1 MOL1         0.1008
      19    H13     17.812976   19.961397   20.793535 H          1 MOL1         0.1008
      20    H14     19.576199   20.125837   20.625048 H          1 MOL1         0.1008
@<TRIPOS>BOND
    1     1     2    1
    2     1     3    1
    3     1     4    1
    4     1     5    1
    5     5     6    1
    6     5     7    1
    7     5     8    1
    8     8     9    1
    9     8    10    1
   10     8    11    1
   11    11    12    1
   12    11    13    1
   13    11    14    1
   14    14    15    1
   15    14    16    1
   16    14    17    1
   17    17    18    1
   18    17    19    1
   19    17    20    1
@<TRIPOS>SUBSTRUCTURE
       1 MOL1            1 RESIDUE      1      MOL     
@<SCITEGIC>MOL_PROPERTY
VConf Rank
SciTegic.value.IntegerValue
358

@<SCITEGIC>MOL_PROPERTY
Conf_Id
SciTegic.value.IntegerValue
64

@<SCITEGIC>MOL_PROPERTY
Delta U+W
SciTegic.value.DoubleValue
0.707

@<SCITEGIC>MOL_PROPERTY
U+W
SciTegic.value.DoubleValue
-11.070

@<SCITEGIC>MOL_PROPERTY
Grad RMS
SciTegic.value.DoubleValue
0.000000

@<SCITEGIC>MOL_PROPERTY
U
SciTegic.value.DoubleValue
47.077

@<SCITEGIC>MOL_PROPERTY
W
SciTegic.value.DoubleValue
-58.148

@<SCITEGIC>MOL_PROPERTY
W(PB)
SciTegic.value.DoubleValue
-60.054

@<SCITEGIC>MOL_PROPERTY
W(SA)
SciTegic.value.DoubleValue
1.906

@<SCITEGIC>MOL_PROPERTY
Valence
SciTegic.value.DoubleValue
2.039

@<SCITEGIC>MOL_PROPERTY
Coulomb
SciTegic.value.DoubleValue
44.655

@<SCITEGIC>MOL_PROPERTY
VdW
SciTegic.value.DoubleValue
0.383

@<SCITEGIC>MOL_PROPERTY
VdW6
SciTegic.value.DoubleValue
-4.912

@<SCITEGIC>MOL_PROPERTY
VdW12
SciTegic.value.DoubleValue
5.295

@<SCITEGIC>MOL_PROPERTY
Bond
SciTegic.value.DoubleValue
0.159

@<SCITEGIC>MOL_PROPERTY
Angle
SciTegic.value.DoubleValue
0.856

@<SCITEGIC>MOL_PROPERTY
Pdih
SciTegic.value.DoubleValue
1.024

@<SCITEGIC>MOL_PROPERTY
Idih
SciTegic.value.DoubleValue
0.000

@<SCITEGIC>MOL_PROPERTY
Tether
SciTegic.value.DoubleValue
0.000

@<TRIPOS>MOLECULE
guest-s11_confgen4.mol2 : confsearch ligand conformer 359
          20          19           1
SMALL
USER_CHARGES
 
@<TRIPOS>ATOM
       1    N1      18.274100   18.101526   20.787219 N.4        1 MOL1        -0.5919
       2    H1      18.536557   17.242931   20.293014 H          1 MOL1         0.3682
       3    H2      17.678412   17.825962   21.574267 H          1 MOL1         0.3682
       4    H3      17.687225   18.645702   20.146175 H          1 MOL1         0.3682
       5    C1      19.487890   18.886030   21.242844 C.3        1 MOL1         0.0252
       6    H4      19.134399   19.797675   21.731652 H          1 MOL1         0.0971
       7    H5      20.059050   19.170908   20.355151 H          1 MOL1         0.0971
       8    C2      20.391400   18.096306   22.208569 C.3        1 MOL1        -0.1369
       9    H6      19.816536   17.801933   23.095886 H          1 MOL1         0.0997
      10    H7      20.706874   17.163309   21.723026 H          1 MOL1         0.0997
      11    C3      21.652582   18.889383   22.633357 C.3        1 MOL1        -0.1329
      12    H8      22.278080   19.065736   21.747272 H          1 MOL1         0.0997
      13    H9      22.254708   18.265972   23.308684 H          1 MOL1         0.0997
      14    C4      21.365709   20.249367   23.319921 C.3        1 MOL1        -0.1305
      15    H10     22.324665   20.729987   23.559275 H          1 MOL1         0.0997
      16    H11     20.855656   20.926978   22.621734 H          1 MOL1         0.0997
      17    C5      20.536384   20.119740   24.617775 C.3        1 MOL1        -0.2320
      18    H12     21.015257   19.430424   25.325236 H          1 MOL1         0.1008
      19    H13     20.441105   21.095143   25.112160 H          1 MOL1         0.1008
      20    H14     19.522628   19.753622   24.413103 H          1 MOL1         0.1008
@<TRIPOS>BOND
    1     1     2    1
    2     1     3    1
    3     1     4    1
    4     1     5    1
    5     5     6    1
    6     5     7    1
    7     5     8    1
    8     8     9    1
    9     8    10    1
   10     8    11    1
   11    11    12    1
   12    11    13    1
   13    11    14    1
   14    14    15    1
   15    14    16    1
   16    14    17    1
   17    17    18    1
   18    17    19    1
   19    17    20    1
@<TRIPOS>SUBSTRUCTURE
       1 MOL1            1 RESIDUE      1      MOL     
@<SCITEGIC>MOL_PROPERTY
VConf Rank
SciTegic.value.IntegerValue
359

@<SCITEGIC>MOL_PROPERTY
Conf_Id
SciTegic.value.IntegerValue
22

@<SCITEGIC>MOL_PROPERTY
Delta U+W
SciTegic.value.DoubleValue
0.731

@<SCITEGIC>MOL_PROPERTY
U+W
SciTegic.value.DoubleValue
-11.047

@<SCITEGIC>MOL_PROPERTY
Grad RMS
SciTegic.value.DoubleValue
0.000000

@<SCITEGIC>MOL_PROPERTY
U
SciTegic.value.DoubleValue
47.078

@<SCITEGIC>MOL_PROPERTY
W
SciTegic.value.DoubleValue
-58.125

@<SCITEGIC>MOL_PROPERTY
W(PB)
SciTegic.value.DoubleValue
-60.031

@<SCITEGIC>MOL_PROPERTY
W(SA)
SciTegic.value.DoubleValue
1.906

@<SCITEGIC>MOL_PROPERTY
Valence
SciTegic.value.DoubleValue
2.039

@<SCITEGIC>MOL_PROPERTY
Coulomb
SciTegic.value.DoubleValue
44.655

@<SCITEGIC>MOL_PROPERTY
VdW
SciTegic.value.DoubleValue
0.383

@<SCITEGIC>MOL_PROPERTY
VdW6
SciTegic.value.DoubleValue
-4.913

@<SCITEGIC>MOL_PROPERTY
VdW12
SciTegic.value.DoubleValue
5.296

@<SCITEGIC>MOL_PROPERTY
Bond
SciTegic.value.DoubleValue
0.159

@<SCITEGIC>MOL_PROPERTY
Angle
SciTegic.value.DoubleValue
0.856

@<SCITEGIC>MOL_PROPERTY
Pdih
SciTegic.value.DoubleValue
1.024

@<SCITEGIC>MOL_PROPERTY
Idih
SciTegic.value.DoubleValue
0.000

@<SCITEGIC>MOL_PROPERTY
Tether
SciTegic.value.DoubleValue
0.000

@<TRIPOS>MOLECULE
guest-s11_confgen4.mol2 : confsearch ligand conformer 360
          20          19           1
SMALL
USER_CHARGES
 
@<TRIPOS>ATOM
       1    N1      18.941434   20.535736   24.565169 N.4        1 MOL1        -0.5919
       2    H1      19.738956   20.964401   25.045316 H          1 MOL1         0.3682
       3    H2      18.336897   21.298964   24.245280 H          1 MOL1         0.3682
       4    H3      18.412978   20.014999   25.273024 H          1 MOL1         0.3682
       5    C1      19.381365   19.644197   23.421391 C.3        1 MOL1         0.0252
       6    H4      18.487280   19.201100   22.974541 H          1 MOL1         0.0971
       7    H5      19.993463   18.843125   23.841970 H          1 MOL1         0.0971
       8    C2      20.182764   20.395597   22.343509 C.3        1 MOL1        -0.1369
       9    H6      19.602319   21.268543   22.016441 H          1 MOL1         0.0997
      10    H7      21.109630   20.786924   22.783473 H          1 MOL1         0.0997
      11    C3      20.520181   19.536556   21.098475 C.3        1 MOL1        -0.1329
      12    H8      21.006760   20.195073   20.365572 H          1 MOL1         0.0997
      13    H9      19.596089   19.188349   20.616650 H          1 MOL1         0.0997
      14    C4      21.467254   18.338553   21.368719 C.3        1 MOL1        -0.1305
      15    H10     22.029654   18.129231   20.447854 H          1 MOL1         0.0997
      16    H11     22.217356   18.608515   22.125163 H          1 MOL1         0.0997
      17    C5      20.734042   17.040000   21.779814 C.3        1 MOL1        -0.2320
      18    H12     20.220455   17.139115   22.741728 H          1 MOL1         0.1008
      19    H13     19.991091   16.751479   21.024974 H          1 MOL1         0.1008
      20    H14     21.448638   16.212155   21.874733 H          1 MOL1         0.1008
@<TRIPOS>BOND
    1     1     2    1
    2     1     3    1
    3     1     4    1
    4     1     5    1
    5     5     6    1
    6     5     7    1
    7     5     8    1
    8     8     9    1
    9     8    10    1
   10     8    11    1
   11    11    12    1
   12    11    13    1
   13    11    14    1
   14    14    15    1
   15    14    16    1
   16    14    17    1
   17    17    18    1
   18    17    19    1
   19    17    20    1
@<TRIPOS>SUBSTRUCTURE
       1 MOL1            1 RESIDUE      1      MOL     
@<SCITEGIC>MOL_PROPERTY
VConf Rank
SciTegic.value.IntegerValue
360

@<SCITEGIC>MOL_PROPERTY
Conf_Id
SciTegic.value.IntegerValue
61

@<SCITEGIC>MOL_PROPERTY
Delta U+W
SciTegic.value.DoubleValue
2.669

@<SCITEGIC>MOL_PROPERTY
U+W
SciTegic.value.DoubleValue
-9.108

@<SCITEGIC>MOL_PROPERTY
Grad RMS
SciTegic.value.DoubleValue
0.000000

@<SCITEGIC>MOL_PROPERTY
U
SciTegic.value.DoubleValue
48.916

@<SCITEGIC>MOL_PROPERTY
W
SciTegic.value.DoubleValue
-58.025

@<SCITEGIC>MOL_PROPERTY
W(PB)
SciTegic.value.DoubleValue
-59.935

@<SCITEGIC>MOL_PROPERTY
W(SA)
SciTegic.value.DoubleValue
1.911

@<SCITEGIC>MOL_PROPERTY
Valence
SciTegic.value.DoubleValue
3.785

@<SCITEGIC>MOL_PROPERTY
Coulomb
SciTegic.value.DoubleValue
44.716

@<SCITEGIC>MOL_PROPERTY
VdW
SciTegic.value.DoubleValue
0.415

@<SCITEGIC>MOL_PROPERTY
VdW6
SciTegic.value.DoubleValue
-4.836

@<SCITEGIC>MOL_PROPERTY
VdW12
SciTegic.value.DoubleValue
5.251

@<SCITEGIC>MOL_PROPERTY
Bond
SciTegic.value.DoubleValue
0.175

@<SCITEGIC>MOL_PROPERTY
Angle
SciTegic.value.DoubleValue
1.195

@<SCITEGIC>MOL_PROPERTY
Pdih
SciTegic.value.DoubleValue
2.415

@<SCITEGIC>MOL_PROPERTY
Idih
SciTegic.value.DoubleValue
0.000

@<SCITEGIC>MOL_PROPERTY
Tether
SciTegic.value.DoubleValue
0.000

@<TRIPOS>MOLECULE
guest-s11_confgen4.mol2 : confsearch ligand conformer 361
          20          19           1
SMALL
USER_CHARGES
 
@<TRIPOS>ATOM
       1    N1      20.433389   17.194965   21.104053 N.4        1 MOL1        -0.5919
       2    H1      20.381529   16.171293   21.071677 H          1 MOL1         0.3682
       3    H2      20.836209   17.499764   20.212349 H          1 MOL1         0.3682
       4    H3      21.103921   17.438863   21.837487 H          1 MOL1         0.3682
       5    C1      19.072779   17.818836   21.349199 C.3        1 MOL1         0.0252
       6    H4      18.666982   17.415576   22.280890 H          1 MOL1         0.0971
       7    H5      18.423265   17.496916   20.530627 H          1 MOL1         0.0971
       8    C2      19.080623   19.361001   21.405241 C.3        1 MOL1        -0.1369
       9    H6      19.722430   19.763409   20.610278 H          1 MOL1         0.0997
      10    H7      18.064434   19.708266   21.175811 H          1 MOL1         0.0997
      11    C3      19.485708   19.954213   22.779204 C.3        1 MOL1        -0.1329
      12    H8      18.797858   19.587208   23.553565 H          1 MOL1         0.0997
      13    H9      19.344003   21.043049   22.736359 H          1 MOL1         0.0997
      14    C4      20.943631   19.656868   23.201527 C.3        1 MOL1        -0.1305
      15    H10     21.067297   18.584300   23.396862 H          1 MOL1         0.0997
      16    H11     21.630737   19.922912   22.386023 H          1 MOL1         0.0997
      17    C5      21.336918   20.436599   24.474462 C.3        1 MOL1        -0.2320
      18    H12     22.370092   20.207324   24.766069 H          1 MOL1         0.1008
      19    H13     21.266263   21.520114   24.312519 H          1 MOL1         0.1008
      20    H14     20.683230   20.173555   25.316347 H          1 MOL1         0.1008
@<TRIPOS>BOND
    1     1     2    1
    2     1     3    1
    3     1     4    1
    4     1     5    1
    5     5     6    1
    6     5     7    1
    7     5     8    1
    8     8     9    1
    9     8    10    1
   10     8    11    1
   11    11    12    1
   12    11    13    1
   13    11    14    1
   14    14    15    1
   15    14    16    1
   16    14    17    1
   17    17    18    1
   18    17    19    1
   19    17    20    1
@<TRIPOS>SUBSTRUCTURE
       1 MOL1            1 RESIDUE      1      MOL     
@<SCITEGIC>MOL_PROPERTY
VConf Rank
SciTegic.value.IntegerValue
361

@<SCITEGIC>MOL_PROPERTY
Conf_Id
SciTegic.value.IntegerValue
69

@<SCITEGIC>MOL_PROPERTY
Delta U+W
SciTegic.value.DoubleValue
2.811

@<SCITEGIC>MOL_PROPERTY
U+W
SciTegic.value.DoubleValue
-8.967

@<SCITEGIC>MOL_PROPERTY
Grad RMS
SciTegic.value.DoubleValue
0.000000

@<SCITEGIC>MOL_PROPERTY
U
SciTegic.value.DoubleValue
49.216

@<SCITEGIC>MOL_PROPERTY
W
SciTegic.value.DoubleValue
-58.183

@<SCITEGIC>MOL_PROPERTY
W(PB)
SciTegic.value.DoubleValue
-60.064

@<SCITEGIC>MOL_PROPERTY
W(SA)
SciTegic.value.DoubleValue
1.881

@<SCITEGIC>MOL_PROPERTY
Valence
SciTegic.value.DoubleValue
2.929

@<SCITEGIC>MOL_PROPERTY
Coulomb
SciTegic.value.DoubleValue
46.006

@<SCITEGIC>MOL_PROPERTY
VdW
SciTegic.value.DoubleValue
0.281

@<SCITEGIC>MOL_PROPERTY
VdW6
SciTegic.value.DoubleValue
-4.909

@<SCITEGIC>MOL_PROPERTY
VdW12
SciTegic.value.DoubleValue
5.190

@<SCITEGIC>MOL_PROPERTY
Bond
SciTegic.value.DoubleValue
0.156

@<SCITEGIC>MOL_PROPERTY
Angle
SciTegic.value.DoubleValue
0.974

@<SCITEGIC>MOL_PROPERTY
Pdih
SciTegic.value.DoubleValue
1.799

@<SCITEGIC>MOL_PROPERTY
Idih
SciTegic.value.DoubleValue
0.000

@<SCITEGIC>MOL_PROPERTY
Tether
SciTegic.value.DoubleValue
0.000

@<TRIPOS>MOLECULE
guest-s11_confgen4.mol2 : confsearch ligand conformer 362
          20          19           1
SMALL
USER_CHARGES
 
@<TRIPOS>ATOM
       1    N1      22.331914   18.766665   22.243140 N.4        1 MOL1        -0.5919
       2    H1      21.704346   18.088324   22.682505 H          1 MOL1         0.3682
       3    H2      22.521246   18.432451   21.293004 H          1 MOL1         0.3682
       4    H3      23.220670   18.729262   22.753390 H          1 MOL1         0.3682
       5    C1      21.743907   20.164811   22.240942 C.3        1 MOL1         0.0252
       6    H4      22.481393   20.819129   21.768143 H          1 MOL1         0.0971
       7    H5      21.617291   20.491511   23.276594 H          1 MOL1         0.0971
       8    C2      20.404815   20.290780   21.484342 C.3        1 MOL1        -0.1369
       9    H6      20.283376   21.342879   21.194153 H          1 MOL1         0.0997
      10    H7      20.448008   19.723061   20.545383 H          1 MOL1         0.0997
      11    C3      19.157581   19.878955   22.308101 C.3        1 MOL1        -0.1329
      12    H8      18.263113   20.118023   21.716279 H          1 MOL1         0.0997
      13    H9      19.097513   20.496587   23.214957 H          1 MOL1         0.0997
      14    C4      19.112308   18.383137   22.698988 C.3        1 MOL1        -0.1305
      15    H10     19.279688   17.759152   21.809848 H          1 MOL1         0.0997
      16    H11     19.913732   18.156656   23.413324 H          1 MOL1         0.0997
      17    C5      17.760508   18.004069   23.340832 C.3        1 MOL1        -0.2320
      18    H12     16.929472   18.177304   22.644706 H          1 MOL1         0.1008
      19    H13     17.748199   16.942741   23.620981 H          1 MOL1         0.1008
      20    H14     17.574991   18.593888   24.248007 H          1 MOL1         0.1008
@<TRIPOS>BOND
    1     1     2    1
    2     1     3    1
    3     1     4    1
    4     1     5    1
    5     5     6    1
    6     5     7    1
    7     5     8    1
    8     8     9    1
    9     8    10    1
   10     8    11    1
   11    11    12    1
   12    11    13    1
   13    11    14    1
   14    14    15    1
   15    14    16    1
   16    14    17    1
   17    17    18    1
   18    17    19    1
   19    17    20    1
@<TRIPOS>SUBSTRUCTURE
       1 MOL1            1 RESIDUE      1      MOL     
@<SCITEGIC>MOL_PROPERTY
VConf Rank
SciTegic.value.IntegerValue
362

@<SCITEGIC>MOL_PROPERTY
Conf_Id
SciTegic.value.IntegerValue
26

@<SCITEGIC>MOL_PROPERTY
Delta U+W
SciTegic.value.DoubleValue
2.809

@<SCITEGIC>MOL_PROPERTY
U+W
SciTegic.value.DoubleValue
-8.969

@<SCITEGIC>MOL_PROPERTY
Grad RMS
SciTegic.value.DoubleValue
0.000000

@<SCITEGIC>MOL_PROPERTY
U
SciTegic.value.DoubleValue
49.216

@<SCITEGIC>MOL_PROPERTY
W
SciTegic.value.DoubleValue
-58.185

@<SCITEGIC>MOL_PROPERTY
W(PB)
SciTegic.value.DoubleValue
-60.088

@<SCITEGIC>MOL_PROPERTY
W(SA)
SciTegic.value.DoubleValue
1.903

@<SCITEGIC>MOL_PROPERTY
Valence
SciTegic.value.DoubleValue
2.929

@<SCITEGIC>MOL_PROPERTY
Coulomb
SciTegic.value.DoubleValue
46.006

@<SCITEGIC>MOL_PROPERTY
VdW
SciTegic.value.DoubleValue
0.281

@<SCITEGIC>MOL_PROPERTY
VdW6
SciTegic.value.DoubleValue
-4.909

@<SCITEGIC>MOL_PROPERTY
VdW12
SciTegic.value.DoubleValue
5.190

@<SCITEGIC>MOL_PROPERTY
Bond
SciTegic.value.DoubleValue
0.156

@<SCITEGIC>MOL_PROPERTY
Angle
SciTegic.value.DoubleValue
0.974

@<SCITEGIC>MOL_PROPERTY
Pdih
SciTegic.value.DoubleValue
1.799

@<SCITEGIC>MOL_PROPERTY
Idih
SciTegic.value.DoubleValue
0.000

@<SCITEGIC>MOL_PROPERTY
Tether
SciTegic.value.DoubleValue
0.000

@<TRIPOS>MOLECULE
guest-s11_confgen4.mol2 : confsearch ligand conformer 363
          20          19           1
SMALL
USER_CHARGES
 
@<TRIPOS>ATOM
       1    N1      19.928747   16.786433   22.803428 N.4        1 MOL1        -0.5919
       2    H1      20.871768   17.054397   23.099817 H          1 MOL1         0.3682
       3    H2      19.426146   16.473052   23.639623 H          1 MOL1         0.3682
       4    H3      20.026690   15.970179   22.190691 H          1 MOL1         0.3682
       5    C1      19.212556   17.929090   22.110315 C.3        1 MOL1         0.0252
       6    H4      18.230869   17.564766   21.795564 H          1 MOL1         0.0971
       7    H5      19.779953   18.191931   21.213706 H          1 MOL1         0.0971
       8    C2      19.034590   19.177904   22.997492 C.3        1 MOL1        -0.1369
       9    H6      18.443697   19.921380   22.447383 H          1 MOL1         0.0997
      10    H7      18.434957   18.910774   23.877674 H          1 MOL1         0.0997
      11    C3      20.369852   19.815527   23.463870 C.3        1 MOL1        -0.1329
      12    H8      20.882132   19.126309   24.148528 H          1 MOL1         0.0997
      13    H9      20.144944   20.711721   24.058388 H          1 MOL1         0.0997
      14    C4      21.341501   20.200443   22.318982 C.3        1 MOL1        -0.1305
      15    H10     22.256189   20.619384   22.761345 H          1 MOL1         0.0997
      16    H11     21.656268   19.303065   21.769318 H          1 MOL1         0.0997
      17    C5      20.748433   21.231837   21.332402 C.3        1 MOL1        -0.2320
      18    H12     20.410254   22.133303   21.859617 H          1 MOL1         0.1008
      19    H13     21.502745   21.537166   20.595739 H          1 MOL1         0.1008
      20    H14     19.896580   20.816732   20.779558 H          1 MOL1         0.1008
@<TRIPOS>BOND
    1     1     2    1
    2     1     3    1
    3     1     4    1
    4     1     5    1
    5     5     6    1
    6     5     7    1
    7     5     8    1
    8     8     9    1
    9     8    10    1
   10     8    11    1
   11    11    12    1
   12    11    13    1
   13    11    14    1
   14    14    15    1
   15    14    16    1
   16    14    17    1
   17    17    18    1
   18    17    19    1
   19    17    20    1
@<TRIPOS>SUBSTRUCTURE
       1 MOL1            1 RESIDUE      1      MOL     
@<SCITEGIC>MOL_PROPERTY
VConf Rank
SciTegic.value.IntegerValue
363

@<SCITEGIC>MOL_PROPERTY
Conf_Id
SciTegic.value.IntegerValue
2

@<SCITEGIC>MOL_PROPERTY
Delta U+W
SciTegic.value.DoubleValue
0.994

@<SCITEGIC>MOL_PROPERTY
U+W
SciTegic.value.DoubleValue
-10.784

@<SCITEGIC>MOL_PROPERTY
Grad RMS
SciTegic.value.DoubleValue
0.000000

@<SCITEGIC>MOL_PROPERTY
U
SciTegic.value.DoubleValue
47.562

@<SCITEGIC>MOL_PROPERTY
W
SciTegic.value.DoubleValue
-58.346

@<SCITEGIC>MOL_PROPERTY
W(PB)
SciTegic.value.DoubleValue
-60.221

@<SCITEGIC>MOL_PROPERTY
W(SA)
SciTegic.value.DoubleValue
1.875

@<SCITEGIC>MOL_PROPERTY
Valence
SciTegic.value.DoubleValue
2.149

@<SCITEGIC>MOL_PROPERTY
Coulomb
SciTegic.value.DoubleValue
45.034

@<SCITEGIC>MOL_PROPERTY
VdW
SciTegic.value.DoubleValue
0.378

@<SCITEGIC>MOL_PROPERTY
VdW6
SciTegic.value.DoubleValue
-5.599

@<SCITEGIC>MOL_PROPERTY
VdW12
SciTegic.value.DoubleValue
5.977

@<SCITEGIC>MOL_PROPERTY
Bond
SciTegic.value.DoubleValue
0.185

@<SCITEGIC>MOL_PROPERTY
Angle
SciTegic.value.DoubleValue
0.935

@<SCITEGIC>MOL_PROPERTY
Pdih
SciTegic.value.DoubleValue
1.028

@<SCITEGIC>MOL_PROPERTY
Idih
SciTegic.value.DoubleValue
0.000

@<SCITEGIC>MOL_PROPERTY
Tether
SciTegic.value.DoubleValue
0.000

@<TRIPOS>MOLECULE
guest-s11_confgen4.mol2 : confsearch ligand conformer 364
          20          19           1
SMALL
USER_CHARGES
 
@<TRIPOS>ATOM
       1    N1      21.787659   18.009758   21.015898 N.4        1 MOL1        -0.5919
       2    H1      22.774829   18.242980   21.161302 H          1 MOL1         0.3682
       3    H2      21.528577   17.328293   21.735218 H          1 MOL1         0.3682
       4    H3      21.724209   17.531061   20.111392 H          1 MOL1         0.3682
       5    C1      20.904253   19.241075   21.065390 C.3        1 MOL1         0.0252
       6    H4      19.874814   18.928906   20.871129 H          1 MOL1         0.0971
       7    H5      21.215157   19.906762   20.255632 H          1 MOL1         0.0971
       8    C2      20.973108   19.999601   22.406354 C.3        1 MOL1        -0.1369
       9    H6      22.003980   20.337866   22.575226 H          1 MOL1         0.0997
      10    H7      20.367916   20.911839   22.328265 H          1 MOL1         0.0997
      11    C3      20.502985   19.165769   23.627297 C.3        1 MOL1        -0.1329
      12    H8      20.555172   19.795157   24.526378 H          1 MOL1         0.0997
      13    H9      21.210044   18.343229   23.799637 H          1 MOL1         0.0997
      14    C4      19.072795   18.580754   23.503393 C.3        1 MOL1        -0.1305
      15    H10     19.022999   17.871829   22.665872 H          1 MOL1         0.0997
      16    H11     18.853887   17.995320   24.407382 H          1 MOL1         0.0997
      17    C5      17.980946   19.661499   23.334001 C.3        1 MOL1        -0.2320
      18    H12     18.090938   20.199764   22.384383 H          1 MOL1         0.1008
      19    H13     16.983044   19.204295   23.340514 H          1 MOL1         0.1008
      20    H14     18.019899   20.393518   24.151063 H          1 MOL1         0.1008
@<TRIPOS>BOND
    1     1     2    1
    2     1     3    1
    3     1     4    1
    4     1     5    1
    5     5     6    1
    6     5     7    1
    7     5     8    1
    8     8     9    1
    9     8    10    1
   10     8    11    1
   11    11    12    1
   12    11    13    1
   13    11    14    1
   14    14    15    1
   15    14    16    1
   16    14    17    1
   17    17    18    1
   18    17    19    1
   19    17    20    1
@<TRIPOS>SUBSTRUCTURE
       1 MOL1            1 RESIDUE      1      MOL     
@<SCITEGIC>MOL_PROPERTY
VConf Rank
SciTegic.value.IntegerValue
364

@<SCITEGIC>MOL_PROPERTY
Conf_Id
SciTegic.value.IntegerValue
1

@<SCITEGIC>MOL_PROPERTY
Delta U+W
SciTegic.value.DoubleValue
1.032

@<SCITEGIC>MOL_PROPERTY
U+W
SciTegic.value.DoubleValue
-10.746

@<SCITEGIC>MOL_PROPERTY
Grad RMS
SciTegic.value.DoubleValue
0.000000

@<SCITEGIC>MOL_PROPERTY
U
SciTegic.value.DoubleValue
47.562

@<SCITEGIC>MOL_PROPERTY
W
SciTegic.value.DoubleValue
-58.308

@<SCITEGIC>MOL_PROPERTY
W(PB)
SciTegic.value.DoubleValue
-60.184

@<SCITEGIC>MOL_PROPERTY
W(SA)
SciTegic.value.DoubleValue
1.877

@<SCITEGIC>MOL_PROPERTY
Valence
SciTegic.value.DoubleValue
2.149

@<SCITEGIC>MOL_PROPERTY
Coulomb
SciTegic.value.DoubleValue
45.035

@<SCITEGIC>MOL_PROPERTY
VdW
SciTegic.value.DoubleValue
0.378

@<SCITEGIC>MOL_PROPERTY
VdW6
SciTegic.value.DoubleValue
-5.599

@<SCITEGIC>MOL_PROPERTY
VdW12
SciTegic.value.DoubleValue
5.978

@<SCITEGIC>MOL_PROPERTY
Bond
SciTegic.value.DoubleValue
0.185

@<SCITEGIC>MOL_PROPERTY
Angle
SciTegic.value.DoubleValue
0.935

@<SCITEGIC>MOL_PROPERTY
Pdih
SciTegic.value.DoubleValue
1.028

@<SCITEGIC>MOL_PROPERTY
Idih
SciTegic.value.DoubleValue
0.000

@<SCITEGIC>MOL_PROPERTY
Tether
SciTegic.value.DoubleValue
0.000

@<TRIPOS>MOLECULE
guest-s11_confgen4.mol2 : confsearch ligand conformer 365
          20          19           1
SMALL
USER_CHARGES
 
@<TRIPOS>ATOM
       1    N1      19.355312   19.527350   24.609286 N.4        1 MOL1        -0.5919
       2    H1      18.450307   19.115017   24.856344 H          1 MOL1         0.3682
       3    H2      20.058339   18.787556   24.693795 H          1 MOL1         0.3682
       4    H3      19.569731   20.227443   25.327088 H          1 MOL1         0.3682
       5    C1      19.338937   20.133130   23.219135 C.3        1 MOL1         0.0252
       6    H4      20.317825   20.578537   23.034983 H          1 MOL1         0.0971
       7    H5      18.598520   20.937683   23.220280 H          1 MOL1         0.0971
       8    C2      18.988766   19.125148   22.103757 C.3        1 MOL1        -0.1369
       9    H6      18.004762   18.694061   22.331179 H          1 MOL1         0.0997
      10    H7      18.869065   19.661680   21.153271 H          1 MOL1         0.0997
      11    C3      20.012816   17.971998   21.925186 C.3        1 MOL1        -0.1329
      12    H8      19.492413   17.131205   21.445945 H          1 MOL1         0.0997
      13    H9      20.343289   17.592829   22.900759 H          1 MOL1         0.0997
      14    C4      21.242945   18.316378   21.046428 C.3        1 MOL1        -0.1305
      15    H10     21.840966   17.403206   20.918230 H          1 MOL1         0.0997
      16    H11     20.910204   18.603754   20.039214 H          1 MOL1         0.0997
      17    C5      22.154694   19.422787   21.621322 C.3        1 MOL1        -0.2320
      18    H12     22.413172   19.222545   22.669107 H          1 MOL1         0.1008
      19    H13     23.090589   19.481030   21.050675 H          1 MOL1         0.1008
      20    H14     21.676638   20.407423   21.558006 H          1 MOL1         0.1008
@<TRIPOS>BOND
    1     1     2    1
    2     1     3    1
    3     1     4    1
    4     1     5    1
    5     5     6    1
    6     5     7    1
    7     5     8    1
    8     8     9    1
    9     8    10    1
   10     8    11    1
   11    11    12    1
   12    11    13    1
   13    11    14    1
   14    14    15    1
   15    14    16    1
   16    14    17    1
   17    17    18    1
   18    17    19    1
   19    17    20    1
@<TRIPOS>SUBSTRUCTURE
       1 MOL1            1 RESIDUE      1      MOL     
@<SCITEGIC>MOL_PROPERTY
VConf Rank
SciTegic.value.IntegerValue
365

@<SCITEGIC>MOL_PROPERTY
Conf_Id
SciTegic.value.IntegerValue
80

@<SCITEGIC>MOL_PROPERTY
Delta U+W
SciTegic.value.DoubleValue
2.920

@<SCITEGIC>MOL_PROPERTY
U+W
SciTegic.value.DoubleValue
-8.857

@<SCITEGIC>MOL_PROPERTY
Grad RMS
SciTegic.value.DoubleValue
0.000000

@<SCITEGIC>MOL_PROPERTY
U
SciTegic.value.DoubleValue
49.434

@<SCITEGIC>MOL_PROPERTY
W
SciTegic.value.DoubleValue
-58.292

@<SCITEGIC>MOL_PROPERTY
W(PB)
SciTegic.value.DoubleValue
-60.170

@<SCITEGIC>MOL_PROPERTY
W(SA)
SciTegic.value.DoubleValue
1.879

@<SCITEGIC>MOL_PROPERTY
Valence
SciTegic.value.DoubleValue
3.798

@<SCITEGIC>MOL_PROPERTY
Coulomb
SciTegic.value.DoubleValue
45.253

@<SCITEGIC>MOL_PROPERTY
VdW
SciTegic.value.DoubleValue
0.384

@<SCITEGIC>MOL_PROPERTY
VdW6
SciTegic.value.DoubleValue
-5.595

@<SCITEGIC>MOL_PROPERTY
VdW12
SciTegic.value.DoubleValue
5.979

@<SCITEGIC>MOL_PROPERTY
Bond
SciTegic.value.DoubleValue
0.198

@<SCITEGIC>MOL_PROPERTY
Angle
SciTegic.value.DoubleValue
1.368

@<SCITEGIC>MOL_PROPERTY
Pdih
SciTegic.value.DoubleValue
2.231

@<SCITEGIC>MOL_PROPERTY
Idih
SciTegic.value.DoubleValue
0.000

@<SCITEGIC>MOL_PROPERTY
Tether
SciTegic.value.DoubleValue
0.000

@<TRIPOS>MOLECULE
guest-s11_confgen4.mol2 : confsearch ligand conformer 366
          20          19           1
SMALL
USER_CHARGES
 
@<TRIPOS>ATOM
       1    N1      22.329357   20.090875   22.147516 N.4        1 MOL1        -0.5919
       2    H1      23.095395   19.782024   22.754053 H          1 MOL1         0.3682
       3    H2      22.755313   20.594638   21.362576 H          1 MOL1         0.3682
       4    H3      21.779632   20.773162   22.677586 H          1 MOL1         0.3682
       5    C1      21.479365   18.927300   21.674904 C.3        1 MOL1         0.0252
       6    H4      22.122868   18.268880   21.085066 H          1 MOL1         0.0971
       7    H5      20.707025   19.322207   21.013045 H          1 MOL1         0.0971
       8    C2      20.840549   18.115357   22.821809 C.3        1 MOL1        -0.1369
       9    H6      20.353992   17.222284   22.407923 H          1 MOL1         0.0997
      10    H7      21.647884   17.745336   23.467652 H          1 MOL1         0.0997
      11    C3      19.825275   18.905887   23.690490 C.3        1 MOL1        -0.1329
      12    H8      20.197817   19.917291   23.897840 H          1 MOL1         0.0997
      13    H9      19.763240   18.410926   24.669566 H          1 MOL1         0.0997
      14    C4      18.386701   18.978613   23.116679 C.3        1 MOL1        -0.1305
      15    H10     17.982027   17.963422   23.000886 H          1 MOL1         0.0997
      16    H11     17.745476   19.477070   23.857164 H          1 MOL1         0.0997
      17    C5      18.266563   19.735489   21.775547 C.3        1 MOL1        -0.2320
      18    H12     18.700628   19.158192   20.950702 H          1 MOL1         0.1008
      19    H13     17.211231   19.908615   21.528100 H          1 MOL1         0.1008
      20    H14     18.764190   20.712677   21.822776 H          1 MOL1         0.1008
@<TRIPOS>BOND
    1     1     2    1
    2     1     3    1
    3     1     4    1
    4     1     5    1
    5     5     6    1
    6     5     7    1
    7     5     8    1
    8     8     9    1
    9     8    10    1
   10     8    11    1
   11    11    12    1
   12    11    13    1
   13    11    14    1
   14    14    15    1
   15    14    16    1
   16    14    17    1
   17    17    18    1
   18    17    19    1
   19    17    20    1
@<TRIPOS>SUBSTRUCTURE
       1 MOL1            1 RESIDUE      1      MOL     
@<SCITEGIC>MOL_PROPERTY
VConf Rank
SciTegic.value.IntegerValue
366

@<SCITEGIC>MOL_PROPERTY
Conf_Id
SciTegic.value.IntegerValue
65

@<SCITEGIC>MOL_PROPERTY
Delta U+W
SciTegic.value.DoubleValue
2.949

@<SCITEGIC>MOL_PROPERTY
U+W
SciTegic.value.DoubleValue
-8.829

@<SCITEGIC>MOL_PROPERTY
Grad RMS
SciTegic.value.DoubleValue
0.000000

@<SCITEGIC>MOL_PROPERTY
U
SciTegic.value.DoubleValue
49.435

@<SCITEGIC>MOL_PROPERTY
W
SciTegic.value.DoubleValue
-58.263

@<SCITEGIC>MOL_PROPERTY
W(PB)
SciTegic.value.DoubleValue
-60.125

@<SCITEGIC>MOL_PROPERTY
W(SA)
SciTegic.value.DoubleValue
1.862

@<SCITEGIC>MOL_PROPERTY
Valence
SciTegic.value.DoubleValue
3.797

@<SCITEGIC>MOL_PROPERTY
Coulomb
SciTegic.value.DoubleValue
45.253

@<SCITEGIC>MOL_PROPERTY
VdW
SciTegic.value.DoubleValue
0.384

@<SCITEGIC>MOL_PROPERTY
VdW6
SciTegic.value.DoubleValue
-5.596

@<SCITEGIC>MOL_PROPERTY
VdW12
SciTegic.value.DoubleValue
5.980

@<SCITEGIC>MOL_PROPERTY
Bond
SciTegic.value.DoubleValue
0.198

@<SCITEGIC>MOL_PROPERTY
Angle
SciTegic.value.DoubleValue
1.369

@<SCITEGIC>MOL_PROPERTY
Pdih
SciTegic.value.DoubleValue
2.230

@<SCITEGIC>MOL_PROPERTY
Idih
SciTegic.value.DoubleValue
0.000

@<SCITEGIC>MOL_PROPERTY
Tether
SciTegic.value.DoubleValue
0.000

@<TRIPOS>MOLECULE
guest-s11_confgen4.mol2 : confsearch ligand conformer 367
          20          19           1
SMALL
USER_CHARGES
 
@<TRIPOS>ATOM
       1    N1      21.912755   19.605196   23.169873 N.4        1 MOL1        -0.5919
       2    H1      22.876087   19.644449   22.820396 H          1 MOL1         0.3682
       3    H2      21.373584   20.312120   22.660680 H          1 MOL1         0.3682
       4    H3      21.940561   19.892636   24.153240 H          1 MOL1         0.3682
       5    C1      21.308971   18.224027   23.004426 C.3        1 MOL1         0.0252
       6    H4      21.934655   17.531571   23.574114 H          1 MOL1         0.0971
       7    H5      21.363755   17.941311   21.949783 H          1 MOL1         0.0971
       8    C2      19.853393   18.112783   23.501746 C.3        1 MOL1        -0.1369
       9    H6      19.658891   17.056536   23.730490 H          1 MOL1         0.0997
      10    H7      19.743720   18.649120   24.453651 H          1 MOL1         0.0997
      11    C3      18.772030   18.585457   22.493236 C.3        1 MOL1        -0.1329
      12    H8      17.791263   18.399910   22.952793 H          1 MOL1         0.0997
      13    H9      18.797976   17.955076   21.593563 H          1 MOL1         0.0997
      14    C4      18.840045   20.082176   22.096089 C.3        1 MOL1        -0.1305
      15    H10     17.814894   20.455764   21.962833 H          1 MOL1         0.0997
      16    H11     19.266964   20.677909   22.914077 H          1 MOL1         0.0997
      17    C5      19.607163   20.326021   20.774768 C.3        1 MOL1        -0.2320
      18    H12     20.622935   19.917030   20.797789 H          1 MOL1         0.1008
      19    H13     19.083038   19.856585   19.932008 H          1 MOL1         0.1008
      20    H14     19.678746   21.400542   20.561552 H          1 MOL1         0.1008
@<TRIPOS>BOND
    1     1     2    1
    2     1     3    1
    3     1     4    1
    4     1     5    1
    5     5     6    1
    6     5     7    1
    7     5     8    1
    8     8     9    1
    9     8    10    1
   10     8    11    1
   11    11    12    1
   12    11    13    1
   13    11    14    1
   14    14    15    1
   15    14    16    1
   16    14    17    1
   17    17    18    1
   18    17    19    1
   19    17    20    1
@<TRIPOS>SUBSTRUCTURE
       1 MOL1            1 RESIDUE      1      MOL     
@<SCITEGIC>MOL_PROPERTY
VConf Rank
SciTegic.value.IntegerValue
367

@<SCITEGIC>MOL_PROPERTY
Conf_Id
SciTegic.value.IntegerValue
77

@<SCITEGIC>MOL_PROPERTY
Delta U+W
SciTegic.value.DoubleValue
5.366

@<SCITEGIC>MOL_PROPERTY
U+W
SciTegic.value.DoubleValue
-6.412

@<SCITEGIC>MOL_PROPERTY
Grad RMS
SciTegic.value.DoubleValue
0.000000

@<SCITEGIC>MOL_PROPERTY
U
SciTegic.value.DoubleValue
51.542

@<SCITEGIC>MOL_PROPERTY
W
SciTegic.value.DoubleValue
-57.954

@<SCITEGIC>MOL_PROPERTY
W(PB)
SciTegic.value.DoubleValue
-59.811

@<SCITEGIC>MOL_PROPERTY
W(SA)
SciTegic.value.DoubleValue
1.857

@<SCITEGIC>MOL_PROPERTY
Valence
SciTegic.value.DoubleValue
5.347

@<SCITEGIC>MOL_PROPERTY
Coulomb
SciTegic.value.DoubleValue
45.870

@<SCITEGIC>MOL_PROPERTY
VdW
SciTegic.value.DoubleValue
0.325

@<SCITEGIC>MOL_PROPERTY
VdW6
SciTegic.value.DoubleValue
-6.161

@<SCITEGIC>MOL_PROPERTY
VdW12
SciTegic.value.DoubleValue
6.486

@<SCITEGIC>MOL_PROPERTY
Bond
SciTegic.value.DoubleValue
0.201

@<SCITEGIC>MOL_PROPERTY
Angle
SciTegic.value.DoubleValue
1.484

@<SCITEGIC>MOL_PROPERTY
Pdih
SciTegic.value.DoubleValue
3.662

@<SCITEGIC>MOL_PROPERTY
Idih
SciTegic.value.DoubleValue
0.000

@<SCITEGIC>MOL_PROPERTY
Tether
SciTegic.value.DoubleValue
0.000

@<TRIPOS>MOLECULE
guest-s11_confgen4.mol2 : confsearch ligand conformer 368
          20          19           1
SMALL
USER_CHARGES
 
@<TRIPOS>ATOM
       1    N1      20.736938   20.142535   23.996653 N.4        1 MOL1        -0.5919
       2    H1      21.688465   20.520918   23.953884 H          1 MOL1         0.3682
       3    H2      20.218843   20.529660   23.202023 H          1 MOL1         0.3682
       4    H3      20.307328   20.511872   24.851468 H          1 MOL1         0.3682
       5    C1      20.733000   18.626285   23.973574 C.3        1 MOL1         0.0252
       6    H4      19.703499   18.276427   24.087271 H          1 MOL1         0.0971
       7    H5      21.302933   18.292092   24.844788 H          1 MOL1         0.0971
       8    C2      21.355753   18.017355   22.700863 C.3        1 MOL1        -0.1369
       9    H6      22.267376   18.567834   22.433048 H          1 MOL1         0.0997
      10    H7      21.683681   16.998155   22.944802 H          1 MOL1         0.0997
      11    C3      20.405039   17.928341   21.476901 C.3        1 MOL1        -0.1329
      12    H8      19.559786   17.264884   21.706765 H          1 MOL1         0.0997
      13    H9      20.957199   17.429886   20.668082 H          1 MOL1         0.0997
      14    C4      19.884801   19.285004   20.937144 C.3        1 MOL1        -0.1305
      15    H10     20.614436   20.082090   21.133482 H          1 MOL1         0.0997
      16    H11     19.806780   19.219404   19.842672 H          1 MOL1         0.0997
      17    C5      18.489553   19.663550   21.488329 C.3        1 MOL1        -0.2320
      18    H12     18.185581   20.653843   21.124872 H          1 MOL1         0.1008
      19    H13     17.733190   18.942241   21.152248 H          1 MOL1         0.1008
      20    H14     18.461693   19.681493   22.583088 H          1 MOL1         0.1008
@<TRIPOS>BOND
    1     1     2    1
    2     1     3    1
    3     1     4    1
    4     1     5    1
    5     5     6    1
    6     5     7    1
    7     5     8    1
    8     8     9    1
    9     8    10    1
   10     8    11    1
   11    11    12    1
   12    11    13    1
   13    11    14    1
   14    14    15    1
   15    14    16    1
   16    14    17    1
   17    17    18    1
   18    17    19    1
   19    17    20    1
@<TRIPOS>SUBSTRUCTURE
       1 MOL1            1 RESIDUE      1      MOL     
@<SCITEGIC>MOL_PROPERTY
VConf Rank
SciTegic.value.IntegerValue
368

@<SCITEGIC>MOL_PROPERTY
Conf_Id
SciTegic.value.IntegerValue
67

@<SCITEGIC>MOL_PROPERTY
Delta U+W
SciTegic.value.DoubleValue
5.353

@<SCITEGIC>MOL_PROPERTY
U+W
SciTegic.value.DoubleValue
-6.425

@<SCITEGIC>MOL_PROPERTY
Grad RMS
SciTegic.value.DoubleValue
0.000000

@<SCITEGIC>MOL_PROPERTY
U
SciTegic.value.DoubleValue
51.541

@<SCITEGIC>MOL_PROPERTY
W
SciTegic.value.DoubleValue
-57.966

@<SCITEGIC>MOL_PROPERTY
W(PB)
SciTegic.value.DoubleValue
-59.821

@<SCITEGIC>MOL_PROPERTY
W(SA)
SciTegic.value.DoubleValue
1.855

@<SCITEGIC>MOL_PROPERTY
Valence
SciTegic.value.DoubleValue
5.347

@<SCITEGIC>MOL_PROPERTY
Coulomb
SciTegic.value.DoubleValue
45.870

@<SCITEGIC>MOL_PROPERTY
VdW
SciTegic.value.DoubleValue
0.325

@<SCITEGIC>MOL_PROPERTY
VdW6
SciTegic.value.DoubleValue
-6.161

@<SCITEGIC>MOL_PROPERTY
VdW12
SciTegic.value.DoubleValue
6.486

@<SCITEGIC>MOL_PROPERTY
Bond
SciTegic.value.DoubleValue
0.201

@<SCITEGIC>MOL_PROPERTY
Angle
SciTegic.value.DoubleValue
1.485

@<SCITEGIC>MOL_PROPERTY
Pdih
SciTegic.value.DoubleValue
3.662

@<SCITEGIC>MOL_PROPERTY
Idih
SciTegic.value.DoubleValue
0.000

@<SCITEGIC>MOL_PROPERTY
Tether
SciTegic.value.DoubleValue
0.000

@<TRIPOS>MOLECULE
guest-s11_confgen4.mol2 : confsearch ligand conformer 369
          20          19           1
SMALL
USER_CHARGES
 
@<TRIPOS>ATOM
       1    N1      18.624567   21.606042   23.831849 N.4        1 MOL1        -0.5919
       2    H1      17.999605   21.835780   23.052728 H          1 MOL1         0.3682
       3    H2      18.101108   21.784881   24.695334 H          1 MOL1         0.3682
       4    H3      19.396472   22.279808   23.807568 H          1 MOL1         0.3682
       5    C1      19.118720   20.175309   23.759009 C.3        1 MOL1         0.0252
       6    H4      18.249721   19.514552   23.820309 H          1 MOL1         0.0971
       7    H5      19.751500   19.991936   24.631638 H          1 MOL1         0.0971
       8    C2      19.909337   19.873096   22.473374 C.3        1 MOL1        -0.1369
       9    H6      19.275358   20.073850   21.599397 H          1 MOL1         0.0997
      10    H7      20.771973   20.549588   22.407917 H          1 MOL1         0.0997
      11    C3      20.394230   18.406670   22.438653 C.3        1 MOL1        -0.1329
      12    H8      19.529075   17.732681   22.509612 H          1 MOL1         0.0997
      13    H9      21.023969   18.207862   23.317115 H          1 MOL1         0.0997
      14    C4      21.189465   18.091642   21.151837 C.3        1 MOL1        -0.1305
      15    H10     20.562430   18.287200   20.270570 H          1 MOL1         0.0997
      16    H11     22.057163   18.762236   21.077997 H          1 MOL1         0.0997
      17    C5      21.671782   16.625549   21.121495 C.3        1 MOL1        -0.2320
      18    H12     20.823469   15.929737   21.159251 H          1 MOL1         0.1008
      19    H13     22.233868   16.421259   20.200969 H          1 MOL1         0.1008
      20    H14     22.329980   16.408510   21.972896 H          1 MOL1         0.1008
@<TRIPOS>BOND
    1     1     2    1
    2     1     3    1
    3     1     4    1
    4     1     5    1
    5     5     6    1
    6     5     7    1
    7     5     8    1
    8     8     9    1
    9     8    10    1
   10     8    11    1
   11    11    12    1
   12    11    13    1
   13    11    14    1
   14    14    15    1
   15    14    16    1
   16    14    17    1
   17    17    18    1
   18    17    19    1
   19    17    20    1
@<TRIPOS>SUBSTRUCTURE
       1 MOL1            1 RESIDUE      1      MOL     
@<SCITEGIC>MOL_PROPERTY
VConf Rank
SciTegic.value.IntegerValue
369

@<SCITEGIC>MOL_PROPERTY
Conf_Id
SciTegic.value.IntegerValue
72

@<SCITEGIC>MOL_PROPERTY
Delta U+W
SciTegic.value.DoubleValue
0.000

@<SCITEGIC>MOL_PROPERTY
U+W
SciTegic.value.DoubleValue
-11.778

@<SCITEGIC>MOL_PROPERTY
Grad RMS
SciTegic.value.DoubleValue
0.000000

@<SCITEGIC>MOL_PROPERTY
U
SciTegic.value.DoubleValue
45.772

@<SCITEGIC>MOL_PROPERTY
W
SciTegic.value.DoubleValue
-57.550

@<SCITEGIC>MOL_PROPERTY
W(PB)
SciTegic.value.DoubleValue
-59.511

@<SCITEGIC>MOL_PROPERTY
W(SA)
SciTegic.value.DoubleValue
1.961

@<SCITEGIC>MOL_PROPERTY
Valence
SciTegic.value.DoubleValue
1.299

@<SCITEGIC>MOL_PROPERTY
Coulomb
SciTegic.value.DoubleValue
44.177

@<SCITEGIC>MOL_PROPERTY
VdW
SciTegic.value.DoubleValue
0.297

@<SCITEGIC>MOL_PROPERTY
VdW6
SciTegic.value.DoubleValue
-3.490

@<SCITEGIC>MOL_PROPERTY
VdW12
SciTegic.value.DoubleValue
3.786

@<SCITEGIC>MOL_PROPERTY
Bond
SciTegic.value.DoubleValue
0.096

@<SCITEGIC>MOL_PROPERTY
Angle
SciTegic.value.DoubleValue
0.381

@<SCITEGIC>MOL_PROPERTY
Pdih
SciTegic.value.DoubleValue
0.822

@<SCITEGIC>MOL_PROPERTY
Idih
SciTegic.value.DoubleValue
0.000

@<SCITEGIC>MOL_PROPERTY
Tether
SciTegic.value.DoubleValue
0.000

@<TRIPOS>MOLECULE
guest-s11_confgen4.mol2 : confsearch ligand conformer 370
          20          19           1
SMALL
USER_CHARGES
 
@<TRIPOS>ATOM
       1    N1      19.887923   17.961410   25.220307 N.4        1 MOL1        -0.5919
       2    H1      20.683641   17.343130   25.033495 H          1 MOL1         0.3682
       3    H2      20.245857   18.760742   25.752580 H          1 MOL1         0.3682
       4    H3      19.253789   17.449771   25.842948 H          1 MOL1         0.3682
       5    C1      19.195306   18.395040   23.944054 C.3        1 MOL1         0.0252
       6    H4      18.343564   19.023037   24.219099 H          1 MOL1         0.0971
       7    H5      18.814563   17.499491   23.445524 H          1 MOL1         0.0971
       8    C2      20.119957   19.167232   22.985927 C.3        1 MOL1        -0.1369
       9    H6      20.512524   20.057007   23.495831 H          1 MOL1         0.0997
      10    H7      20.979457   18.534546   22.730907 H          1 MOL1         0.0997
      11    C3      19.371925   19.591450   21.699996 C.3        1 MOL1        -0.1329
      12    H8      18.473251   20.158854   21.979600 H          1 MOL1         0.0997
      13    H9      19.018952   18.698550   21.165463 H          1 MOL1         0.0997
      14    C4      20.226650   20.461413   20.746434 C.3        1 MOL1        -0.1305
      15    H10     19.591824   20.803539   19.917045 H          1 MOL1         0.0997
      16    H11     20.562011   21.367648   21.270023 H          1 MOL1         0.0997
      17    C5      21.448716   19.715749   20.163279 C.3        1 MOL1        -0.2320
      18    H12     21.142947   18.790288   19.658264 H          1 MOL1         0.1008
      19    H13     21.966446   20.343980   19.426914 H          1 MOL1         0.1008
      20    H14     22.174726   19.458019   20.944245 H          1 MOL1         0.1008
@<TRIPOS>BOND
    1     1     2    1
    2     1     3    1
    3     1     4    1
    4     1     5    1
    5     5     6    1
    6     5     7    1
    7     5     8    1
    8     8     9    1
    9     8    10    1
   10     8    11    1
   11    11    12    1
   12    11    13    1
   13    11    14    1
   14    14    15    1
   15    14    16    1
   16    14    17    1
   17    17    18    1
   18    17    19    1
   19    17    20    1
@<TRIPOS>SUBSTRUCTURE
       1 MOL1            1 RESIDUE      1      MOL     
@<SCITEGIC>MOL_PROPERTY
VConf Rank
SciTegic.value.IntegerValue
370

@<SCITEGIC>MOL_PROPERTY
Conf_Id
SciTegic.value.IntegerValue
42

@<SCITEGIC>MOL_PROPERTY
Delta U+W
SciTegic.value.DoubleValue
0.508

@<SCITEGIC>MOL_PROPERTY
U+W
SciTegic.value.DoubleValue
-11.270

@<SCITEGIC>MOL_PROPERTY
Grad RMS
SciTegic.value.DoubleValue
0.000000

@<SCITEGIC>MOL_PROPERTY
U
SciTegic.value.DoubleValue
46.486

@<SCITEGIC>MOL_PROPERTY
W
SciTegic.value.DoubleValue
-57.756

@<SCITEGIC>MOL_PROPERTY
W(PB)
SciTegic.value.DoubleValue
-59.705

@<SCITEGIC>MOL_PROPERTY
W(SA)
SciTegic.value.DoubleValue
1.949

@<SCITEGIC>MOL_PROPERTY
Valence
SciTegic.value.DoubleValue
1.806

@<SCITEGIC>MOL_PROPERTY
Coulomb
SciTegic.value.DoubleValue
44.248

@<SCITEGIC>MOL_PROPERTY
VdW
SciTegic.value.DoubleValue
0.433

@<SCITEGIC>MOL_PROPERTY
VdW6
SciTegic.value.DoubleValue
-4.089

@<SCITEGIC>MOL_PROPERTY
VdW12
SciTegic.value.DoubleValue
4.522

@<SCITEGIC>MOL_PROPERTY
Bond
SciTegic.value.DoubleValue
0.131

@<SCITEGIC>MOL_PROPERTY
Angle
SciTegic.value.DoubleValue
0.628

@<SCITEGIC>MOL_PROPERTY
Pdih
SciTegic.value.DoubleValue
1.047

@<SCITEGIC>MOL_PROPERTY
Idih
SciTegic.value.DoubleValue
0.000

@<SCITEGIC>MOL_PROPERTY
Tether
SciTegic.value.DoubleValue
0.000

@<TRIPOS>MOLECULE
guest-s11_confgen4.mol2 : confsearch ligand conformer 371
          20          19           1
SMALL
USER_CHARGES
 
@<TRIPOS>ATOM
       1    N1      18.316005   18.764172   20.126638 N.4        1 MOL1        -0.5919
       2    H1      18.426546   19.710658   19.749398 H          1 MOL1         0.3682
       3    H2      18.992153   18.165706   19.641873 H          1 MOL1         0.3682
       4    H3      17.382432   18.441600   19.851013 H          1 MOL1         0.3682
       5    C1      18.502975   18.728115   21.630075 C.3        1 MOL1         0.0252
       6    H4      18.342186   17.700008   21.965709 H          1 MOL1         0.0971
       7    H5      17.733486   19.360627   22.080974 H          1 MOL1         0.0971
       8    C2      19.895328   19.207215   22.078502 C.3        1 MOL1        -0.1369
       9    H6      20.659595   18.577123   21.606329 H          1 MOL1         0.0997
      10    H7      20.058839   20.234182   21.725777 H          1 MOL1         0.0997
      11    C3      20.040667   19.155887   23.617780 C.3        1 MOL1        -0.1329
      12    H8      19.922832   18.120429   23.966390 H          1 MOL1         0.0997
      13    H9      19.221885   19.729853   24.073745 H          1 MOL1         0.0997
      14    C4      21.386000   19.724775   24.130726 C.3        1 MOL1        -0.1305
      15    H10     21.497124   20.768336   23.804370 H          1 MOL1         0.0997
      16    H11     21.363205   19.747729   25.229313 H          1 MOL1         0.0997
      17    C5      22.614250   18.904133   23.675223 C.3        1 MOL1        -0.2320
      18    H12     22.750238   18.950942   22.587685 H          1 MOL1         0.1008
      19    H13     23.529862   19.293936   24.138536 H          1 MOL1         0.1008
      20    H14     22.514733   17.849989   23.964864 H          1 MOL1         0.1008
@<TRIPOS>BOND
    1     1     2    1
    2     1     3    1
    3     1     4    1
    4     1     5    1
    5     5     6    1
    6     5     7    1
    7     5     8    1
    8     8     9    1
    9     8    10    1
   10     8    11    1
   11    11    12    1
   12    11    13    1
   13    11    14    1
   14    14    15    1
   15    14    16    1
   16    14    17    1
   17    17    18    1
   18    17    19    1
   19    17    20    1
@<TRIPOS>SUBSTRUCTURE
       1 MOL1            1 RESIDUE      1      MOL     
@<SCITEGIC>MOL_PROPERTY
VConf Rank
SciTegic.value.IntegerValue
371

@<SCITEGIC>MOL_PROPERTY
Conf_Id
SciTegic.value.IntegerValue
41

@<SCITEGIC>MOL_PROPERTY
Delta U+W
SciTegic.value.DoubleValue
0.515

@<SCITEGIC>MOL_PROPERTY
U+W
SciTegic.value.DoubleValue
-11.263

@<SCITEGIC>MOL_PROPERTY
Grad RMS
SciTegic.value.DoubleValue
0.000000

@<SCITEGIC>MOL_PROPERTY
U
SciTegic.value.DoubleValue
46.486

@<SCITEGIC>MOL_PROPERTY
W
SciTegic.value.DoubleValue
-57.749

@<SCITEGIC>MOL_PROPERTY
W(PB)
SciTegic.value.DoubleValue
-59.685

@<SCITEGIC>MOL_PROPERTY
W(SA)
SciTegic.value.DoubleValue
1.936

@<SCITEGIC>MOL_PROPERTY
Valence
SciTegic.value.DoubleValue
1.806

@<SCITEGIC>MOL_PROPERTY
Coulomb
SciTegic.value.DoubleValue
44.248

@<SCITEGIC>MOL_PROPERTY
VdW
SciTegic.value.DoubleValue
0.433

@<SCITEGIC>MOL_PROPERTY
VdW6
SciTegic.value.DoubleValue
-4.089

@<SCITEGIC>MOL_PROPERTY
VdW12
SciTegic.value.DoubleValue
4.522

@<SCITEGIC>MOL_PROPERTY
Bond
SciTegic.value.DoubleValue
0.131

@<SCITEGIC>MOL_PROPERTY
Angle
SciTegic.value.DoubleValue
0.628

@<SCITEGIC>MOL_PROPERTY
Pdih
SciTegic.value.DoubleValue
1.047

@<SCITEGIC>MOL_PROPERTY
Idih
SciTegic.value.DoubleValue
0.000

@<SCITEGIC>MOL_PROPERTY
Tether
SciTegic.value.DoubleValue
0.000

@<TRIPOS>MOLECULE
guest-s11_confgen4.mol2 : confsearch ligand conformer 372
          20          19           1
SMALL
USER_CHARGES
 
@<TRIPOS>ATOM
       1    N1      18.952781   16.884689   23.557653 N.4        1 MOL1        -0.5919
       2    H1      18.785854   15.873283   23.584006 H          1 MOL1         0.3682
       3    H2      19.710891   17.078946   24.218315 H          1 MOL1         0.3682
       4    H3      18.108582   17.335376   23.924265 H          1 MOL1         0.3682
       5    C1      19.286286   17.363600   22.157802 C.3        1 MOL1         0.0252
       6    H4      18.454522   17.083202   21.505771 H          1 MOL1         0.0971
       7    H5      20.178253   16.829586   21.819182 H          1 MOL1         0.0971
       8    C2      19.522220   18.883489   22.057093 C.3        1 MOL1        -0.1369
       9    H6      19.636807   19.138538   20.996231 H          1 MOL1         0.0997
      10    H7      18.631416   19.417019   22.414168 H          1 MOL1         0.0997
      11    C3      20.772443   19.348663   22.845556 C.3        1 MOL1        -0.1329
      12    H8      21.662981   18.827584   22.467553 H          1 MOL1         0.0997
      13    H9      20.668819   19.058453   23.899429 H          1 MOL1         0.0997
      14    C4      21.004738   20.878212   22.786398 C.3        1 MOL1        -0.1305
      15    H10     20.121818   21.403848   23.176301 H          1 MOL1         0.0997
      16    H11     21.835661   21.134314   23.458647 H          1 MOL1         0.0997
      17    C5      21.335256   21.397521   21.368357 C.3        1 MOL1        -0.2320
      18    H12     20.485007   21.277890   20.685690 H          1 MOL1         0.1008
      19    H13     21.584111   22.466193   21.399318 H          1 MOL1         0.1008
      20    H14     22.196086   20.865344   20.943195 H          1 MOL1         0.1008
@<TRIPOS>BOND
    1     1     2    1
    2     1     3    1
    3     1     4    1
    4     1     5    1
    5     5     6    1
    6     5     7    1
    7     5     8    1
    8     8     9    1
    9     8    10    1
   10     8    11    1
   11    11    12    1
   12    11    13    1
   13    11    14    1
   14    14    15    1
   15    14    16    1
   16    14    17    1
   17    17    18    1
   18    17    19    1
   19    17    20    1
@<TRIPOS>SUBSTRUCTURE
       1 MOL1            1 RESIDUE      1      MOL     
@<SCITEGIC>MOL_PROPERTY
VConf Rank
SciTegic.value.IntegerValue
372

@<SCITEGIC>MOL_PROPERTY
Conf_Id
SciTegic.value.IntegerValue
33

@<SCITEGIC>MOL_PROPERTY
Delta U+W
SciTegic.value.DoubleValue
0.703

@<SCITEGIC>MOL_PROPERTY
U+W
SciTegic.value.DoubleValue
-11.075

@<SCITEGIC>MOL_PROPERTY
Grad RMS
SciTegic.value.DoubleValue
0.000000

@<SCITEGIC>MOL_PROPERTY
U
SciTegic.value.DoubleValue
47.080

@<SCITEGIC>MOL_PROPERTY
W
SciTegic.value.DoubleValue
-58.154

@<SCITEGIC>MOL_PROPERTY
W(PB)
SciTegic.value.DoubleValue
-60.053

@<SCITEGIC>MOL_PROPERTY
W(SA)
SciTegic.value.DoubleValue
1.899

@<SCITEGIC>MOL_PROPERTY
Valence
SciTegic.value.DoubleValue
1.943

@<SCITEGIC>MOL_PROPERTY
Coulomb
SciTegic.value.DoubleValue
44.572

@<SCITEGIC>MOL_PROPERTY
VdW
SciTegic.value.DoubleValue
0.565

@<SCITEGIC>MOL_PROPERTY
VdW6
SciTegic.value.DoubleValue
-4.575

@<SCITEGIC>MOL_PROPERTY
VdW12
SciTegic.value.DoubleValue
5.139

@<SCITEGIC>MOL_PROPERTY
Bond
SciTegic.value.DoubleValue
0.158

@<SCITEGIC>MOL_PROPERTY
Angle
SciTegic.value.DoubleValue
0.700

@<SCITEGIC>MOL_PROPERTY
Pdih
SciTegic.value.DoubleValue
1.085

@<SCITEGIC>MOL_PROPERTY
Idih
SciTegic.value.DoubleValue
0.000

@<SCITEGIC>MOL_PROPERTY
Tether
SciTegic.value.DoubleValue
0.000

@<TRIPOS>MOLECULE
guest-s11_confgen4.mol2 : confsearch ligand conformer 373
          20          19           1
SMALL
USER_CHARGES
 
@<TRIPOS>ATOM
       1    N1      22.308182   20.345751   23.686021 N.4        1 MOL1        -0.5919
       2    H1      22.985271   20.425029   24.452028 H          1 MOL1         0.3682
       3    H2      22.770267   20.699451   22.842476 H          1 MOL1         0.3682
       4    H3      21.538656   20.986515   23.900939 H          1 MOL1         0.3682
       5    C1      21.823544   18.919605   23.508837 C.3        1 MOL1         0.0252
       6    H4      21.364165   18.597490   24.447269 H          1 MOL1         0.0971
       7    H5      22.700830   18.292682   23.327348 H          1 MOL1         0.0971
       8    C2      20.820964   18.739615   22.351989 C.3        1 MOL1        -0.1369
       9    H6      21.278927   19.080135   21.413902 H          1 MOL1         0.0997
      10    H7      20.627896   17.665940   22.235564 H          1 MOL1         0.0997
      11    C3      19.486254   19.488443   22.594736 C.3        1 MOL1        -0.1329
      12    H8      19.688955   20.556806   22.746793 H          1 MOL1         0.0997
      13    H9      19.022785   19.126552   23.523014 H          1 MOL1         0.0997
      14    C4      18.479961   19.349270   21.426412 C.3        1 MOL1        -0.1305
      15    H10     17.615565   19.997675   21.627239 H          1 MOL1         0.0997
      16    H11     18.934120   19.722695   20.497886 H          1 MOL1         0.0997
      17    C5      17.977030   17.902921   21.214515 C.3        1 MOL1        -0.2320
      18    H12     17.546446   17.494850   22.138139 H          1 MOL1         0.1008
      19    H13     17.197908   17.876846   20.441705 H          1 MOL1         0.1008
      20    H14     18.785725   17.237466   20.888242 H          1 MOL1         0.1008
@<TRIPOS>BOND
    1     1     2    1
    2     1     3    1
    3     1     4    1
    4     1     5    1
    5     5     6    1
    6     5     7    1
    7     5     8    1
    8     8     9    1
    9     8    10    1
   10     8    11    1
   11    11    12    1
   12    11    13    1
   13    11    14    1
   14    14    15    1
   15    14    16    1
   16    14    17    1
   17    17    18    1
   18    17    19    1
   19    17    20    1
@<TRIPOS>SUBSTRUCTURE
       1 MOL1            1 RESIDUE      1      MOL     
@<SCITEGIC>MOL_PROPERTY
VConf Rank
SciTegic.value.IntegerValue
373

@<SCITEGIC>MOL_PROPERTY
Conf_Id
SciTegic.value.IntegerValue
24

@<SCITEGIC>MOL_PROPERTY
Delta U+W
SciTegic.value.DoubleValue
0.847

@<SCITEGIC>MOL_PROPERTY
U+W
SciTegic.value.DoubleValue
-10.931

@<SCITEGIC>MOL_PROPERTY
Grad RMS
SciTegic.value.DoubleValue
0.000000

@<SCITEGIC>MOL_PROPERTY
U
SciTegic.value.DoubleValue
47.080

@<SCITEGIC>MOL_PROPERTY
W
SciTegic.value.DoubleValue
-58.011

@<SCITEGIC>MOL_PROPERTY
W(PB)
SciTegic.value.DoubleValue
-59.914

@<SCITEGIC>MOL_PROPERTY
W(SA)
SciTegic.value.DoubleValue
1.903

@<SCITEGIC>MOL_PROPERTY
Valence
SciTegic.value.DoubleValue
1.943

@<SCITEGIC>MOL_PROPERTY
Coulomb
SciTegic.value.DoubleValue
44.572

@<SCITEGIC>MOL_PROPERTY
VdW
SciTegic.value.DoubleValue
0.565

@<SCITEGIC>MOL_PROPERTY
VdW6
SciTegic.value.DoubleValue
-4.575

@<SCITEGIC>MOL_PROPERTY
VdW12
SciTegic.value.DoubleValue
5.140

@<SCITEGIC>MOL_PROPERTY
Bond
SciTegic.value.DoubleValue
0.158

@<SCITEGIC>MOL_PROPERTY
Angle
SciTegic.value.DoubleValue
0.700

@<SCITEGIC>MOL_PROPERTY
Pdih
SciTegic.value.DoubleValue
1.085

@<SCITEGIC>MOL_PROPERTY
Idih
SciTegic.value.DoubleValue
0.000

@<SCITEGIC>MOL_PROPERTY
Tether
SciTegic.value.DoubleValue
0.000

@<TRIPOS>MOLECULE
guest-s11_confgen4.mol2 : confsearch ligand conformer 374
          20          19           1
SMALL
USER_CHARGES
 
@<TRIPOS>ATOM
       1    N1      20.659695   21.203078   24.302748 N.4        1 MOL1        -0.5919
       2    H1      20.453994   21.196832   25.307306 H          1 MOL1         0.3682
       3    H2      21.669946   21.061285   24.205224 H          1 MOL1         0.3682
       4    H3      20.453983   22.147989   23.963434 H          1 MOL1         0.3682
       5    C1      19.865160   20.148886   23.558623 C.3        1 MOL1         0.0252
       6    H4      18.802841   20.343086   23.729338 H          1 MOL1         0.0971
       7    H5      20.110817   19.175572   23.991400 H          1 MOL1         0.0971
       8    C2      20.151683   20.131122   22.045278 C.3        1 MOL1        -0.1369
       9    H6      19.941250   21.124943   21.628388 H          1 MOL1         0.0997
      10    H7      21.219506   19.945313   21.872985 H          1 MOL1         0.0997
      11    C3      19.301958   19.081203   21.286573 C.3        1 MOL1        -0.1329
      12    H8      19.546729   19.130699   20.216573 H          1 MOL1         0.0997
      13    H9      18.241016   19.355961   21.366590 H          1 MOL1         0.0997
      14    C4      19.477756   17.622065   21.779765 C.3        1 MOL1        -0.1305
      15    H10     19.137230   17.529325   22.820062 H          1 MOL1         0.0997
      16    H11     18.819060   16.970753   21.188333 H          1 MOL1         0.0997
      17    C5      20.928809   17.103390   21.659638 C.3        1 MOL1        -0.2320
      18    H12     20.981295   16.041421   21.932351 H          1 MOL1         0.1008
      19    H13     21.300522   17.204536   20.631740 H          1 MOL1         0.1008
      20    H14     21.608029   17.648831   22.326564 H          1 MOL1         0.1008
@<TRIPOS>BOND
    1     1     2    1
    2     1     3    1
    3     1     4    1
    4     1     5    1
    5     5     6    1
    6     5     7    1
    7     5     8    1
    8     8     9    1
    9     8    10    1
   10     8    11    1
   11    11    12    1
   12    11    13    1
   13    11    14    1
   14    14    15    1
   15    14    16    1
   16    14    17    1
   17    17    18    1
   18    17    19    1
   19    17    20    1
@<TRIPOS>SUBSTRUCTURE
       1 MOL1            1 RESIDUE      1      MOL     
@<SCITEGIC>MOL_PROPERTY
VConf Rank
SciTegic.value.IntegerValue
374

@<SCITEGIC>MOL_PROPERTY
Conf_Id
SciTegic.value.IntegerValue
64

@<SCITEGIC>MOL_PROPERTY
Delta U+W
SciTegic.value.DoubleValue
0.707

@<SCITEGIC>MOL_PROPERTY
U+W
SciTegic.value.DoubleValue
-11.070

@<SCITEGIC>MOL_PROPERTY
Grad RMS
SciTegic.value.DoubleValue
0.000000

@<SCITEGIC>MOL_PROPERTY
U
SciTegic.value.DoubleValue
47.077

@<SCITEGIC>MOL_PROPERTY
W
SciTegic.value.DoubleValue
-58.148

@<SCITEGIC>MOL_PROPERTY
W(PB)
SciTegic.value.DoubleValue
-60.054

@<SCITEGIC>MOL_PROPERTY
W(SA)
SciTegic.value.DoubleValue
1.906

@<SCITEGIC>MOL_PROPERTY
Valence
SciTegic.value.DoubleValue
2.039

@<SCITEGIC>MOL_PROPERTY
Coulomb
SciTegic.value.DoubleValue
44.655

@<SCITEGIC>MOL_PROPERTY
VdW
SciTegic.value.DoubleValue
0.383

@<SCITEGIC>MOL_PROPERTY
VdW6
SciTegic.value.DoubleValue
-4.912

@<SCITEGIC>MOL_PROPERTY
VdW12
SciTegic.value.DoubleValue
5.295

@<SCITEGIC>MOL_PROPERTY
Bond
SciTegic.value.DoubleValue
0.159

@<SCITEGIC>MOL_PROPERTY
Angle
SciTegic.value.DoubleValue
0.856

@<SCITEGIC>MOL_PROPERTY
Pdih
SciTegic.value.DoubleValue
1.024

@<SCITEGIC>MOL_PROPERTY
Idih
SciTegic.value.DoubleValue
0.000

@<SCITEGIC>MOL_PROPERTY
Tether
SciTegic.value.DoubleValue
0.000

@<TRIPOS>MOLECULE
guest-s11_confgen4.mol2 : confsearch ligand conformer 375
          20          19           1
SMALL
USER_CHARGES
 
@<TRIPOS>ATOM
       1    N1      18.709710   16.933795   23.375285 N.4        1 MOL1        -0.5919
       2    H1      17.977142   17.180771   24.048081 H          1 MOL1         0.3682
       3    H2      18.258124   16.836303   22.460524 H          1 MOL1         0.3682
       4    H3      19.053221   16.004054   23.638098 H          1 MOL1         0.3682
       5    C1      19.824616   17.959800   23.350272 C.3        1 MOL1         0.0252
       6    H4      20.579818   17.617732   22.637781 H          1 MOL1         0.0971
       7    H5      20.278406   17.990247   24.344519 H          1 MOL1         0.0971
       8    C2      19.341687   19.368905   22.958067 C.3        1 MOL1        -0.1369
       9    H6      18.877727   19.337704   21.963973 H          1 MOL1         0.0997
      10    H7      18.554478   19.685521   23.655073 H          1 MOL1         0.0997
      11    C3      20.479542   20.420019   22.979024 C.3        1 MOL1        -0.1329
      12    H8      20.846678   20.527519   24.009145 H          1 MOL1         0.0997
      13    H9      20.064998   21.399298   22.702565 H          1 MOL1         0.0997
      14    C4      21.680221   20.098103   22.052762 C.3        1 MOL1        -0.1305
      15    H10     22.429607   20.894681   22.161231 H          1 MOL1         0.0997
      16    H11     22.174773   19.173335   22.379867 H          1 MOL1         0.0997
      17    C5      21.291574   19.980186   20.561434 C.3        1 MOL1        -0.2320
      18    H12     20.776245   20.885339   20.214866 H          1 MOL1         0.1008
      19    H13     22.186568   19.845143   19.940423 H          1 MOL1         0.1008
      20    H14     20.634080   19.120177   20.383328 H          1 MOL1         0.1008
@<TRIPOS>BOND
    1     1     2    1
    2     1     3    1
    3     1     4    1
    4     1     5    1
    5     5     6    1
    6     5     7    1
    7     5     8    1
    8     8     9    1
    9     8    10    1
   10     8    11    1
   11    11    12    1
   12    11    13    1
   13    11    14    1
   14    14    15    1
   15    14    16    1
   16    14    17    1
   17    17    18    1
   18    17    19    1
   19    17    20    1
@<TRIPOS>SUBSTRUCTURE
       1 MOL1            1 RESIDUE      1      MOL     
@<SCITEGIC>MOL_PROPERTY
VConf Rank
SciTegic.value.IntegerValue
375

@<SCITEGIC>MOL_PROPERTY
Conf_Id
SciTegic.value.IntegerValue
22

@<SCITEGIC>MOL_PROPERTY
Delta U+W
SciTegic.value.DoubleValue
0.731

@<SCITEGIC>MOL_PROPERTY
U+W
SciTegic.value.DoubleValue
-11.047

@<SCITEGIC>MOL_PROPERTY
Grad RMS
SciTegic.value.DoubleValue
0.000000

@<SCITEGIC>MOL_PROPERTY
U
SciTegic.value.DoubleValue
47.078

@<SCITEGIC>MOL_PROPERTY
W
SciTegic.value.DoubleValue
-58.125

@<SCITEGIC>MOL_PROPERTY
W(PB)
SciTegic.value.DoubleValue
-60.031

@<SCITEGIC>MOL_PROPERTY
W(SA)
SciTegic.value.DoubleValue
1.906

@<SCITEGIC>MOL_PROPERTY
Valence
SciTegic.value.DoubleValue
2.039

@<SCITEGIC>MOL_PROPERTY
Coulomb
SciTegic.value.DoubleValue
44.655

@<SCITEGIC>MOL_PROPERTY
VdW
SciTegic.value.DoubleValue
0.383

@<SCITEGIC>MOL_PROPERTY
VdW6
SciTegic.value.DoubleValue
-4.913

@<SCITEGIC>MOL_PROPERTY
VdW12
SciTegic.value.DoubleValue
5.296

@<SCITEGIC>MOL_PROPERTY
Bond
SciTegic.value.DoubleValue
0.159

@<SCITEGIC>MOL_PROPERTY
Angle
SciTegic.value.DoubleValue
0.856

@<SCITEGIC>MOL_PROPERTY
Pdih
SciTegic.value.DoubleValue
1.024

@<SCITEGIC>MOL_PROPERTY
Idih
SciTegic.value.DoubleValue
0.000

@<SCITEGIC>MOL_PROPERTY
Tether
SciTegic.value.DoubleValue
0.000

@<TRIPOS>MOLECULE
guest-s11_confgen4.mol2 : confsearch ligand conformer 376
          20          19           1
SMALL
USER_CHARGES
 
@<TRIPOS>ATOM
       1    N1      18.165273   21.043944   22.107512 N.4        1 MOL1        -0.5919
       2    H1      17.856054   20.821742   21.156016 H          1 MOL1         0.3682
       3    H2      17.362332   20.896705   22.727122 H          1 MOL1         0.3682
       4    H3      18.374237   22.047687   22.125540 H          1 MOL1         0.3682
       5    C1      19.361619   20.211717   22.523160 C.3        1 MOL1         0.0252
       6    H4      19.653320   20.518356   23.531267 H          1 MOL1         0.0971
       7    H5      20.180647   20.443435   21.838494 H          1 MOL1         0.0971
       8    C2      19.081847   18.698471   22.501160 C.3        1 MOL1        -0.1369
       9    H6      18.182794   18.496970   23.098675 H          1 MOL1         0.0997
      10    H7      18.848679   18.384712   21.475014 H          1 MOL1         0.0997
      11    C3      20.243652   17.836616   23.057332 C.3        1 MOL1        -0.1329
      12    H8      19.899477   16.793226   23.078171 H          1 MOL1         0.0997
      13    H9      20.445735   18.103125   24.103986 H          1 MOL1         0.0997
      14    C4      21.553142   17.892369   22.228286 C.3        1 MOL1        -0.1305
      15    H10     22.087830   16.941707   22.364131 H          1 MOL1         0.0997
      16    H11     21.322925   17.958043   21.155706 H          1 MOL1         0.0997
      17    C5      22.509395   19.035466   22.642707 C.3        1 MOL1        -0.2320
      18    H12     22.082176   20.025185   22.450839 H          1 MOL1         0.1008
      19    H13     22.758581   18.972933   23.709947 H          1 MOL1         0.1008
      20    H14     23.448893   18.970203   22.078731 H          1 MOL1         0.1008
@<TRIPOS>BOND
    1     1     2    1
    2     1     3    1
    3     1     4    1
    4     1     5    1
    5     5     6    1
    6     5     7    1
    7     5     8    1
    8     8     9    1
    9     8    10    1
   10     8    11    1
   11    11    12    1
   12    11    13    1
   13    11    14    1
   14    14    15    1
   15    14    16    1
   16    14    17    1
   17    17    18    1
   18    17    19    1
   19    17    20    1
@<TRIPOS>SUBSTRUCTURE
       1 MOL1            1 RESIDUE      1      MOL     
@<SCITEGIC>MOL_PROPERTY
VConf Rank
SciTegic.value.IntegerValue
376

@<SCITEGIC>MOL_PROPERTY
Conf_Id
SciTegic.value.IntegerValue
61

@<SCITEGIC>MOL_PROPERTY
Delta U+W
SciTegic.value.DoubleValue
2.669

@<SCITEGIC>MOL_PROPERTY
U+W
SciTegic.value.DoubleValue
-9.108

@<SCITEGIC>MOL_PROPERTY
Grad RMS
SciTegic.value.DoubleValue
0.000000

@<SCITEGIC>MOL_PROPERTY
U
SciTegic.value.DoubleValue
48.916

@<SCITEGIC>MOL_PROPERTY
W
SciTegic.value.DoubleValue
-58.025

@<SCITEGIC>MOL_PROPERTY
W(PB)
SciTegic.value.DoubleValue
-59.935

@<SCITEGIC>MOL_PROPERTY
W(SA)
SciTegic.value.DoubleValue
1.911

@<SCITEGIC>MOL_PROPERTY
Valence
SciTegic.value.DoubleValue
3.785

@<SCITEGIC>MOL_PROPERTY
Coulomb
SciTegic.value.DoubleValue
44.716

@<SCITEGIC>MOL_PROPERTY
VdW
SciTegic.value.DoubleValue
0.415

@<SCITEGIC>MOL_PROPERTY
VdW6
SciTegic.value.DoubleValue
-4.836

@<SCITEGIC>MOL_PROPERTY
VdW12
SciTegic.value.DoubleValue
5.251

@<SCITEGIC>MOL_PROPERTY
Bond
SciTegic.value.DoubleValue
0.175

@<SCITEGIC>MOL_PROPERTY
Angle
SciTegic.value.DoubleValue
1.195

@<SCITEGIC>MOL_PROPERTY
Pdih
SciTegic.value.DoubleValue
2.415

@<SCITEGIC>MOL_PROPERTY
Idih
SciTegic.value.DoubleValue
0.000

@<SCITEGIC>MOL_PROPERTY
Tether
SciTegic.value.DoubleValue
0.000

@<TRIPOS>MOLECULE
guest-s11_confgen4.mol2 : confsearch ligand conformer 377
          20          19           1
SMALL
USER_CHARGES
 
@<TRIPOS>ATOM
       1    N1      19.140589   17.413304   23.691951 N.4        1 MOL1        -0.5919
       2    H1      18.592448   16.547093   23.662592 H          1 MOL1         0.3682
       3    H2      19.218051   17.681861   24.677942 H          1 MOL1         0.3682
       4    H3      18.586440   18.135597   23.224793 H          1 MOL1         0.3682
       5    C1      20.502624   17.238214   23.047920 C.3        1 MOL1         0.0252
       6    H4      20.360582   16.896935   22.018993 H          1 MOL1         0.0971
       7    H5      21.015335   16.445167   23.599068 H          1 MOL1         0.0971
       8    C2      21.381278   18.506766   23.062622 C.3        1 MOL1        -0.1369
       9    H6      21.306780   19.005111   24.038285 H          1 MOL1         0.0997
      10    H7      22.427933   18.188666   22.966717 H          1 MOL1         0.0997
      11    C3      21.083854   19.510395   21.918928 C.3        1 MOL1        -0.1329
      12    H8      21.219667   19.011353   20.949403 H          1 MOL1         0.0997
      13    H9      21.838317   20.308264   21.959783 H          1 MOL1         0.0997
      14    C4      19.676959   20.150392   21.976909 C.3        1 MOL1        -0.1305
      15    H10     18.909567   19.389610   21.786719 H          1 MOL1         0.0997
      16    H11     19.492752   20.557995   22.980836 H          1 MOL1         0.0997
      17    C5      19.521455   21.276778   20.932835 C.3        1 MOL1        -0.2320
      18    H12     18.515468   21.713560   20.980400 H          1 MOL1         0.1008
      19    H13     20.246055   22.082472   21.108996 H          1 MOL1         0.1008
      20    H14     19.675143   20.895497   19.914859 H          1 MOL1         0.1008
@<TRIPOS>BOND
    1     1     2    1
    2     1     3    1
    3     1     4    1
    4     1     5    1
    5     5     6    1
    6     5     7    1
    7     5     8    1
    8     8     9    1
    9     8    10    1
   10     8    11    1
   11    11    12    1
   12    11    13    1
   13    11    14    1
   14    14    15    1
   15    14    16    1
   16    14    17    1
   17    17    18    1
   18    17    19    1
   19    17    20    1
@<TRIPOS>SUBSTRUCTURE
       1 MOL1            1 RESIDUE      1      MOL     
@<SCITEGIC>MOL_PROPERTY
VConf Rank
SciTegic.value.IntegerValue
377

@<SCITEGIC>MOL_PROPERTY
Conf_Id
SciTegic.value.IntegerValue
69

@<SCITEGIC>MOL_PROPERTY
Delta U+W
SciTegic.value.DoubleValue
2.811

@<SCITEGIC>MOL_PROPERTY
U+W
SciTegic.value.DoubleValue
-8.967

@<SCITEGIC>MOL_PROPERTY
Grad RMS
SciTegic.value.DoubleValue
0.000000

@<SCITEGIC>MOL_PROPERTY
U
SciTegic.value.DoubleValue
49.216

@<SCITEGIC>MOL_PROPERTY
W
SciTegic.value.DoubleValue
-58.183

@<SCITEGIC>MOL_PROPERTY
W(PB)
SciTegic.value.DoubleValue
-60.064

@<SCITEGIC>MOL_PROPERTY
W(SA)
SciTegic.value.DoubleValue
1.881

@<SCITEGIC>MOL_PROPERTY
Valence
SciTegic.value.DoubleValue
2.929

@<SCITEGIC>MOL_PROPERTY
Coulomb
SciTegic.value.DoubleValue
46.006

@<SCITEGIC>MOL_PROPERTY
VdW
SciTegic.value.DoubleValue
0.281

@<SCITEGIC>MOL_PROPERTY
VdW6
SciTegic.value.DoubleValue
-4.909

@<SCITEGIC>MOL_PROPERTY
VdW12
SciTegic.value.DoubleValue
5.190

@<SCITEGIC>MOL_PROPERTY
Bond
SciTegic.value.DoubleValue
0.156

@<SCITEGIC>MOL_PROPERTY
Angle
SciTegic.value.DoubleValue
0.974

@<SCITEGIC>MOL_PROPERTY
Pdih
SciTegic.value.DoubleValue
1.799

@<SCITEGIC>MOL_PROPERTY
Idih
SciTegic.value.DoubleValue
0.000

@<SCITEGIC>MOL_PROPERTY
Tether
SciTegic.value.DoubleValue
0.000

@<TRIPOS>MOLECULE
guest-s11_confgen4.mol2 : confsearch ligand conformer 378
          20          19           1
SMALL
USER_CHARGES
 
@<TRIPOS>ATOM
       1    N1      21.008973   20.954874   21.324901 N.4        1 MOL1        -0.5919
       2    H1      19.996001   20.811943   21.347007 H          1 MOL1         0.3682
       3    H2      21.227677   21.677852   22.017559 H          1 MOL1         0.3682
       4    H3      21.237920   21.346299   20.405112 H          1 MOL1         0.3682
       5    C1      21.769058   19.670099   21.593590 C.3        1 MOL1         0.0252
       6    H4      22.833705   19.913049   21.538270 H          1 MOL1         0.0971
       7    H5      21.543265   18.957883   20.795401 H          1 MOL1         0.0971
       8    C2      21.472204   19.030285   22.966176 C.3        1 MOL1        -0.1369
       9    H6      22.323763   18.387320   23.225627 H          1 MOL1         0.0997
      10    H7      21.433571   19.805793   23.742648 H          1 MOL1         0.0997
      11    C3      20.190229   18.159322   23.007859 C.3        1 MOL1        -0.1329
      12    H8      20.143817   17.666481   23.988896 H          1 MOL1         0.0997
      13    H9      20.270762   17.353554   22.265083 H          1 MOL1         0.0997
      14    C4      18.875597   18.941598   22.779611 C.3        1 MOL1        -0.1305
      15    H10     18.838637   19.813568   23.447627 H          1 MOL1         0.0997
      16    H11     18.835193   19.316705   21.749313 H          1 MOL1         0.0997
      17    C5      17.636346   18.055485   23.028768 C.3        1 MOL1        -0.2320
      18    H12     17.613804   17.688421   24.063165 H          1 MOL1         0.1008
      19    H13     16.712696   18.622186   22.853348 H          1 MOL1         0.1008
      20    H14     17.630856   17.186665   22.357656 H          1 MOL1         0.1008
@<TRIPOS>BOND
    1     1     2    1
    2     1     3    1
    3     1     4    1
    4     1     5    1
    5     5     6    1
    6     5     7    1
    7     5     8    1
    8     8     9    1
    9     8    10    1
   10     8    11    1
   11    11    12    1
   12    11    13    1
   13    11    14    1
   14    14    15    1
   15    14    16    1
   16    14    17    1
   17    17    18    1
   18    17    19    1
   19    17    20    1
@<TRIPOS>SUBSTRUCTURE
       1 MOL1            1 RESIDUE      1      MOL     
@<SCITEGIC>MOL_PROPERTY
VConf Rank
SciTegic.value.IntegerValue
378

@<SCITEGIC>MOL_PROPERTY
Conf_Id
SciTegic.value.IntegerValue
26

@<SCITEGIC>MOL_PROPERTY
Delta U+W
SciTegic.value.DoubleValue
2.809

@<SCITEGIC>MOL_PROPERTY
U+W
SciTegic.value.DoubleValue
-8.969

@<SCITEGIC>MOL_PROPERTY
Grad RMS
SciTegic.value.DoubleValue
0.000000

@<SCITEGIC>MOL_PROPERTY
U
SciTegic.value.DoubleValue
49.216

@<SCITEGIC>MOL_PROPERTY
W
SciTegic.value.DoubleValue
-58.185

@<SCITEGIC>MOL_PROPERTY
W(PB)
SciTegic.value.DoubleValue
-60.088

@<SCITEGIC>MOL_PROPERTY
W(SA)
SciTegic.value.DoubleValue
1.903

@<SCITEGIC>MOL_PROPERTY
Valence
SciTegic.value.DoubleValue
2.929

@<SCITEGIC>MOL_PROPERTY
Coulomb
SciTegic.value.DoubleValue
46.006

@<SCITEGIC>MOL_PROPERTY
VdW
SciTegic.value.DoubleValue
0.281

@<SCITEGIC>MOL_PROPERTY
VdW6
SciTegic.value.DoubleValue
-4.909

@<SCITEGIC>MOL_PROPERTY
VdW12
SciTegic.value.DoubleValue
5.190

@<SCITEGIC>MOL_PROPERTY
Bond
SciTegic.value.DoubleValue
0.156

@<SCITEGIC>MOL_PROPERTY
Angle
SciTegic.value.DoubleValue
0.974

@<SCITEGIC>MOL_PROPERTY
Pdih
SciTegic.value.DoubleValue
1.799

@<SCITEGIC>MOL_PROPERTY
Idih
SciTegic.value.DoubleValue
0.000

@<SCITEGIC>MOL_PROPERTY
Tether
SciTegic.value.DoubleValue
0.000

@<TRIPOS>MOLECULE
guest-s11_confgen4.mol2 : confsearch ligand conformer 379
          20          19           1
SMALL
USER_CHARGES
 
@<TRIPOS>ATOM
       1    N1      19.492416   21.026850   21.043566 N.4        1 MOL1        -0.5919
       2    H1      20.150044   21.392282   21.738493 H          1 MOL1         0.3682
       3    H2      19.949383   21.095226   20.128938 H          1 MOL1         0.3682
       4    H3      18.689788   21.664609   21.024572 H          1 MOL1         0.3682
       5    C1      19.074718   19.604068   21.360141 C.3        1 MOL1         0.0252
       6    H4      18.353545   19.291752   20.599959 H          1 MOL1         0.0971
       7    H5      18.567114   19.606237   22.328265 H          1 MOL1         0.0971
       8    C2      20.249748   18.605765   21.391569 C.3        1 MOL1        -0.1369
       9    H6      19.851440   17.595429   21.550006 H          1 MOL1         0.0997
      10    H7      20.731142   18.586379   20.404898 H          1 MOL1         0.0997
      11    C3      21.315980   18.920762   22.473661 C.3        1 MOL1        -0.1329
      12    H8      21.826731   19.858939   22.218390 H          1 MOL1         0.0997
      13    H9      22.091369   18.142931   22.442852 H          1 MOL1         0.0997
      14    C4      20.764571   19.026381   23.918591 C.3        1 MOL1        -0.1305
      15    H10     21.595953   19.272076   24.594083 H          1 MOL1         0.0997
      16    H11     20.056629   19.862688   23.995437 H          1 MOL1         0.0997
      17    C5      20.088794   17.727375   24.413315 C.3        1 MOL1        -0.2320
      18    H12     20.771127   16.871423   24.331267 H          1 MOL1         0.1008
      19    H13     19.796190   17.823326   25.466910 H          1 MOL1         0.1008
      20    H14     19.182190   17.500898   23.838529 H          1 MOL1         0.1008
@<TRIPOS>BOND
    1     1     2    1
    2     1     3    1
    3     1     4    1
    4     1     5    1
    5     5     6    1
    6     5     7    1
    7     5     8    1
    8     8     9    1
    9     8    10    1
   10     8    11    1
   11    11    12    1
   12    11    13    1
   13    11    14    1
   14    14    15    1
   15    14    16    1
   16    14    17    1
   17    17    18    1
   18    17    19    1
   19    17    20    1
@<TRIPOS>SUBSTRUCTURE
       1 MOL1            1 RESIDUE      1      MOL     
@<SCITEGIC>MOL_PROPERTY
VConf Rank
SciTegic.value.IntegerValue
379

@<SCITEGIC>MOL_PROPERTY
Conf_Id
SciTegic.value.IntegerValue
2

@<SCITEGIC>MOL_PROPERTY
Delta U+W
SciTegic.value.DoubleValue
0.994

@<SCITEGIC>MOL_PROPERTY
U+W
SciTegic.value.DoubleValue
-10.784

@<SCITEGIC>MOL_PROPERTY
Grad RMS
SciTegic.value.DoubleValue
0.000000

@<SCITEGIC>MOL_PROPERTY
U
SciTegic.value.DoubleValue
47.562

@<SCITEGIC>MOL_PROPERTY
W
SciTegic.value.DoubleValue
-58.346

@<SCITEGIC>MOL_PROPERTY
W(PB)
SciTegic.value.DoubleValue
-60.221

@<SCITEGIC>MOL_PROPERTY
W(SA)
SciTegic.value.DoubleValue
1.875

@<SCITEGIC>MOL_PROPERTY
Valence
SciTegic.value.DoubleValue
2.149

@<SCITEGIC>MOL_PROPERTY
Coulomb
SciTegic.value.DoubleValue
45.034

@<SCITEGIC>MOL_PROPERTY
VdW
SciTegic.value.DoubleValue
0.378

@<SCITEGIC>MOL_PROPERTY
VdW6
SciTegic.value.DoubleValue
-5.599

@<SCITEGIC>MOL_PROPERTY
VdW12
SciTegic.value.DoubleValue
5.977

@<SCITEGIC>MOL_PROPERTY
Bond
SciTegic.value.DoubleValue
0.185

@<SCITEGIC>MOL_PROPERTY
Angle
SciTegic.value.DoubleValue
0.935

@<SCITEGIC>MOL_PROPERTY
Pdih
SciTegic.value.DoubleValue
1.028

@<SCITEGIC>MOL_PROPERTY
Idih
SciTegic.value.DoubleValue
0.000

@<SCITEGIC>MOL_PROPERTY
Tether
SciTegic.value.DoubleValue
0.000

@<TRIPOS>MOLECULE
guest-s11_confgen4.mol2 : confsearch ligand conformer 380
          20          19           1
SMALL
USER_CHARGES
 
@<TRIPOS>ATOM
       1    N1      20.110134   17.940909   24.595843 N.4        1 MOL1        -0.5919
       2    H1      20.859324   17.269275   24.789907 H          1 MOL1         0.3682
       3    H2      20.490763   18.876374   24.766039 H          1 MOL1         0.3682
       4    H3      19.378203   17.782098   25.296103 H          1 MOL1         0.3682
       5    C1      19.578696   17.799963   23.182795 C.3        1 MOL1         0.0252
       6    H4      18.764799   18.517970   23.052520 H          1 MOL1         0.0971
       7    H5      19.162514   16.793878   23.082329 H          1 MOL1         0.0971
       8    C2      20.647584   18.022683   22.093685 C.3        1 MOL1        -0.1369
       9    H6      21.443065   17.275258   22.212865 H          1 MOL1         0.0997
      10    H7      20.198136   17.827240   21.111681 H          1 MOL1         0.0997
      11    C3      21.274455   19.441790   22.106293 C.3        1 MOL1        -0.1329
      12    H8      21.995170   19.517194   21.280409 H          1 MOL1         0.0997
      13    H9      21.861780   19.571527   23.025219 H          1 MOL1         0.0997
      14    C4      20.254922   20.604087   21.993792 C.3        1 MOL1        -0.1305
      15    H10     19.582627   20.605821   22.862418 H          1 MOL1         0.0997
      16    H11     20.802573   21.556070   22.034491 H          1 MOL1         0.0997
      17    C5      19.421541   20.564732   20.692728 C.3        1 MOL1        -0.2320
      18    H12     18.768623   19.683725   20.659149 H          1 MOL1         0.1008
      19    H13     18.781054   21.453142   20.619306 H          1 MOL1         0.1008
      20    H14     20.071248   20.545539   19.808153 H          1 MOL1         0.1008
@<TRIPOS>BOND
    1     1     2    1
    2     1     3    1
    3     1     4    1
    4     1     5    1
    5     5     6    1
    6     5     7    1
    7     5     8    1
    8     8     9    1
    9     8    10    1
   10     8    11    1
   11    11    12    1
   12    11    13    1
   13    11    14    1
   14    14    15    1
   15    14    16    1
   16    14    17    1
   17    17    18    1
   18    17    19    1
   19    17    20    1
@<TRIPOS>SUBSTRUCTURE
       1 MOL1            1 RESIDUE      1      MOL     
@<SCITEGIC>MOL_PROPERTY
VConf Rank
SciTegic.value.IntegerValue
380

@<SCITEGIC>MOL_PROPERTY
Conf_Id
SciTegic.value.IntegerValue
1

@<SCITEGIC>MOL_PROPERTY
Delta U+W
SciTegic.value.DoubleValue
1.032

@<SCITEGIC>MOL_PROPERTY
U+W
SciTegic.value.DoubleValue
-10.746

@<SCITEGIC>MOL_PROPERTY
Grad RMS
SciTegic.value.DoubleValue
0.000000

@<SCITEGIC>MOL_PROPERTY
U
SciTegic.value.DoubleValue
47.562

@<SCITEGIC>MOL_PROPERTY
W
SciTegic.value.DoubleValue
-58.308

@<SCITEGIC>MOL_PROPERTY
W(PB)
SciTegic.value.DoubleValue
-60.184

@<SCITEGIC>MOL_PROPERTY
W(SA)
SciTegic.value.DoubleValue
1.877

@<SCITEGIC>MOL_PROPERTY
Valence
SciTegic.value.DoubleValue
2.149

@<SCITEGIC>MOL_PROPERTY
Coulomb
SciTegic.value.DoubleValue
45.035

@<SCITEGIC>MOL_PROPERTY
VdW
SciTegic.value.DoubleValue
0.378

@<SCITEGIC>MOL_PROPERTY
VdW6
SciTegic.value.DoubleValue
-5.599

@<SCITEGIC>MOL_PROPERTY
VdW12
SciTegic.value.DoubleValue
5.978

@<SCITEGIC>MOL_PROPERTY
Bond
SciTegic.value.DoubleValue
0.185

@<SCITEGIC>MOL_PROPERTY
Angle
SciTegic.value.DoubleValue
0.935

@<SCITEGIC>MOL_PROPERTY
Pdih
SciTegic.value.DoubleValue
1.028

@<SCITEGIC>MOL_PROPERTY
Idih
SciTegic.value.DoubleValue
0.000

@<SCITEGIC>MOL_PROPERTY
Tether
SciTegic.value.DoubleValue
0.000

@<TRIPOS>MOLECULE
guest-s11_confgen4.mol2 : confsearch ligand conformer 381
          20          19           1
SMALL
USER_CHARGES
 
@<TRIPOS>ATOM
       1    N1      21.814989   20.163809   23.851780 N.4        1 MOL1        -0.5919
       2    H1      21.755218   21.177715   23.987848 H          1 MOL1         0.3682
       3    H2      21.106764   19.735102   24.454534 H          1 MOL1         0.3682
       4    H3      22.729918   19.868696   24.208373 H          1 MOL1         0.3682
       5    C1      21.626181   19.777357   22.397558 C.3        1 MOL1         0.0252
       6    H4      21.732339   18.694120   22.321082 H          1 MOL1         0.0971
       7    H5      22.439093   20.235716   21.827816 H          1 MOL1         0.0971
       8    C2      20.274950   20.228207   21.802896 C.3        1 MOL1        -0.1369
       9    H6      20.203675   21.318918   21.908197 H          1 MOL1         0.0997
      10    H7      20.268645   20.029803   20.722981 H          1 MOL1         0.0997
      11    C3      19.027066   19.577996   22.458895 C.3        1 MOL1        -0.1329
      12    H8      18.169223   20.241052   22.280327 H          1 MOL1         0.0997
      13    H9      19.140813   19.535247   23.549747 H          1 MOL1         0.0997
      14    C4      18.651484   18.177301   21.910238 C.3        1 MOL1        -0.1305
      15    H10     17.708369   17.864964   22.380269 H          1 MOL1         0.0997
      16    H11     18.444702   18.244387   20.832963 H          1 MOL1         0.0997
      17    C5      19.711217   17.082216   22.162601 C.3        1 MOL1        -0.2320
      18    H12     20.025420   17.065652   23.214153 H          1 MOL1         0.1008
      19    H13     19.303061   16.092694   21.919325 H          1 MOL1         0.1008
      20    H14     20.596161   17.229809   21.532407 H          1 MOL1         0.1008
@<TRIPOS>BOND
    1     1     2    1
    2     1     3    1
    3     1     4    1
    4     1     5    1
    5     5     6    1
    6     5     7    1
    7     5     8    1
    8     8     9    1
    9     8    10    1
   10     8    11    1
   11    11    12    1
   12    11    13    1
   13    11    14    1
   14    14    15    1
   15    14    16    1
   16    14    17    1
   17    17    18    1
   18    17    19    1
   19    17    20    1
@<TRIPOS>SUBSTRUCTURE
       1 MOL1            1 RESIDUE      1      MOL     
@<SCITEGIC>MOL_PROPERTY
VConf Rank
SciTegic.value.IntegerValue
381

@<SCITEGIC>MOL_PROPERTY
Conf_Id
SciTegic.value.IntegerValue
80

@<SCITEGIC>MOL_PROPERTY
Delta U+W
SciTegic.value.DoubleValue
2.920

@<SCITEGIC>MOL_PROPERTY
U+W
SciTegic.value.DoubleValue
-8.857

@<SCITEGIC>MOL_PROPERTY
Grad RMS
SciTegic.value.DoubleValue
0.000000

@<SCITEGIC>MOL_PROPERTY
U
SciTegic.value.DoubleValue
49.434

@<SCITEGIC>MOL_PROPERTY
W
SciTegic.value.DoubleValue
-58.292

@<SCITEGIC>MOL_PROPERTY
W(PB)
SciTegic.value.DoubleValue
-60.170

@<SCITEGIC>MOL_PROPERTY
W(SA)
SciTegic.value.DoubleValue
1.879

@<SCITEGIC>MOL_PROPERTY
Valence
SciTegic.value.DoubleValue
3.798

@<SCITEGIC>MOL_PROPERTY
Coulomb
SciTegic.value.DoubleValue
45.253

@<SCITEGIC>MOL_PROPERTY
VdW
SciTegic.value.DoubleValue
0.384

@<SCITEGIC>MOL_PROPERTY
VdW6
SciTegic.value.DoubleValue
-5.595

@<SCITEGIC>MOL_PROPERTY
VdW12
SciTegic.value.DoubleValue
5.979

@<SCITEGIC>MOL_PROPERTY
Bond
SciTegic.value.DoubleValue
0.198

@<SCITEGIC>MOL_PROPERTY
Angle
SciTegic.value.DoubleValue
1.368

@<SCITEGIC>MOL_PROPERTY
Pdih
SciTegic.value.DoubleValue
2.231

@<SCITEGIC>MOL_PROPERTY
Idih
SciTegic.value.DoubleValue
0.000

@<SCITEGIC>MOL_PROPERTY
Tether
SciTegic.value.DoubleValue
0.000

@<TRIPOS>MOLECULE
guest-s11_confgen4.mol2 : confsearch ligand conformer 382
          20          19           1
SMALL
USER_CHARGES
 
@<TRIPOS>ATOM
       1    N1      18.926642   17.457203   21.593655 N.4        1 MOL1        -0.5919
       2    H1      18.860854   16.577290   22.114727 H          1 MOL1         0.3682
       3    H2      18.209629   17.424262   20.861431 H          1 MOL1         0.3682
       4    H3      19.835582   17.462599   21.121971 H          1 MOL1         0.3682
       5    C1      18.753478   18.662654   22.497348 C.3        1 MOL1         0.0252
       6    H4      17.750183   18.608294   22.928586 H          1 MOL1         0.0971
       7    H5      18.803412   19.558343   21.876249 H          1 MOL1         0.0971
       8    C2      19.790623   18.741108   23.637919 C.3        1 MOL1        -0.1369
       9    H6      19.521448   19.559658   24.318464 H          1 MOL1         0.0997
      10    H7      19.714536   17.820159   24.231117 H          1 MOL1         0.0997
      11    C3      21.260235   18.916061   23.168924 C.3        1 MOL1        -0.1329
      12    H8      21.469341   18.275218   22.302716 H          1 MOL1         0.0997
      13    H9      21.915245   18.547034   23.970300 H          1 MOL1         0.0997
      14    C4      21.682177   20.376082   22.861767 C.3        1 MOL1        -0.1305
      15    H10     21.561017   20.994224   23.762325 H          1 MOL1         0.0997
      16    H11     22.757098   20.382866   22.632754 H          1 MOL1         0.0997
      17    C5      20.925963   21.030079   21.684331 C.3        1 MOL1        -0.2320
      18    H12     19.886782   21.254500   21.952267 H          1 MOL1         0.1008
      19    H13     21.400189   21.980337   21.406754 H          1 MOL1         0.1008
      20    H14     20.930097   20.382276   20.798276 H          1 MOL1         0.1008
@<TRIPOS>BOND
    1     1     2    1
    2     1     3    1
    3     1     4    1
    4     1     5    1
    5     5     6    1
    6     5     7    1
    7     5     8    1
    8     8     9    1
    9     8    10    1
   10     8    11    1
   11    11    12    1
   12    11    13    1
   13    11    14    1
   14    14    15    1
   15    14    16    1
   16    14    17    1
   17    17    18    1
   18    17    19    1
   19    17    20    1
@<TRIPOS>SUBSTRUCTURE
       1 MOL1            1 RESIDUE      1      MOL     
@<SCITEGIC>MOL_PROPERTY
VConf Rank
SciTegic.value.IntegerValue
382

@<SCITEGIC>MOL_PROPERTY
Conf_Id
SciTegic.value.IntegerValue
65

@<SCITEGIC>MOL_PROPERTY
Delta U+W
SciTegic.value.DoubleValue
2.949

@<SCITEGIC>MOL_PROPERTY
U+W
SciTegic.value.DoubleValue
-8.829

@<SCITEGIC>MOL_PROPERTY
Grad RMS
SciTegic.value.DoubleValue
0.000000

@<SCITEGIC>MOL_PROPERTY
U
SciTegic.value.DoubleValue
49.435

@<SCITEGIC>MOL_PROPERTY
W
SciTegic.value.DoubleValue
-58.263

@<SCITEGIC>MOL_PROPERTY
W(PB)
SciTegic.value.DoubleValue
-60.125

@<SCITEGIC>MOL_PROPERTY
W(SA)
SciTegic.value.DoubleValue
1.862

@<SCITEGIC>MOL_PROPERTY
Valence
SciTegic.value.DoubleValue
3.797

@<SCITEGIC>MOL_PROPERTY
Coulomb
SciTegic.value.DoubleValue
45.253

@<SCITEGIC>MOL_PROPERTY
VdW
SciTegic.value.DoubleValue
0.384

@<SCITEGIC>MOL_PROPERTY
VdW6
SciTegic.value.DoubleValue
-5.596

@<SCITEGIC>MOL_PROPERTY
VdW12
SciTegic.value.DoubleValue
5.980

@<SCITEGIC>MOL_PROPERTY
Bond
SciTegic.value.DoubleValue
0.198

@<SCITEGIC>MOL_PROPERTY
Angle
SciTegic.value.DoubleValue
1.369

@<SCITEGIC>MOL_PROPERTY
Pdih
SciTegic.value.DoubleValue
2.230

@<SCITEGIC>MOL_PROPERTY
Idih
SciTegic.value.DoubleValue
0.000

@<SCITEGIC>MOL_PROPERTY
Tether
SciTegic.value.DoubleValue
0.000

@<TRIPOS>MOLECULE
guest-s11_confgen4.mol2 : confsearch ligand conformer 383
          20          19           1
SMALL
USER_CHARGES
 
@<TRIPOS>ATOM
       1    N1      19.103248   18.077113   23.697274 N.4        1 MOL1        -0.5919
       2    H1      19.099987   17.859619   24.699455 H          1 MOL1         0.3682
       3    H2      18.901534   19.076957   23.600587 H          1 MOL1         0.3682
       4    H3      18.319604   17.565990   23.278870 H          1 MOL1         0.3682
       5    C1      20.423607   17.713821   23.045947 C.3        1 MOL1         0.0252
       6    H4      20.565220   16.639087   23.188816 H          1 MOL1         0.0971
       7    H5      21.228747   18.234693   23.570964 H          1 MOL1         0.0971
       8    C2      20.487872   18.034037   21.538717 C.3        1 MOL1        -0.1369
       9    H6      21.255105   17.387289   21.092756 H          1 MOL1         0.0997
      10    H7      19.542376   17.750345   21.057715 H          1 MOL1         0.0997
      11    C3      20.846376   19.503532   21.189548 C.3        1 MOL1        -0.1329
      12    H8      20.910851   19.574336   20.094854 H          1 MOL1         0.0997
      13    H9      21.853899   19.740944   21.558329 H          1 MOL1         0.0997
      14    C4      19.835161   20.570799   21.680369 C.3        1 MOL1        -0.1305
      15    H10     19.779990   21.371901   20.929736 H          1 MOL1         0.0997
      16    H11     18.823619   20.146260   21.733402 H          1 MOL1         0.0997
      17    C5      20.237063   21.213938   23.028948 C.3        1 MOL1        -0.2320
      18    H12     20.383744   20.471433   23.820634 H          1 MOL1         0.1008
      19    H13     21.176051   21.773254   22.925077 H          1 MOL1         0.1008
      20    H14     19.467375   21.920872   23.365109 H          1 MOL1         0.1008
@<TRIPOS>BOND
    1     1     2    1
    2     1     3    1
    3     1     4    1
    4     1     5    1
    5     5     6    1
    6     5     7    1
    7     5     8    1
    8     8     9    1
    9     8    10    1
   10     8    11    1
   11    11    12    1
   12    11    13    1
   13    11    14    1
   14    14    15    1
   15    14    16    1
   16    14    17    1
   17    17    18    1
   18    17    19    1
   19    17    20    1
@<TRIPOS>SUBSTRUCTURE
       1 MOL1            1 RESIDUE      1      MOL     
@<SCITEGIC>MOL_PROPERTY
VConf Rank
SciTegic.value.IntegerValue
383

@<SCITEGIC>MOL_PROPERTY
Conf_Id
SciTegic.value.IntegerValue
77

@<SCITEGIC>MOL_PROPERTY
Delta U+W
SciTegic.value.DoubleValue
5.366

@<SCITEGIC>MOL_PROPERTY
U+W
SciTegic.value.DoubleValue
-6.412

@<SCITEGIC>MOL_PROPERTY
Grad RMS
SciTegic.value.DoubleValue
0.000000

@<SCITEGIC>MOL_PROPERTY
U
SciTegic.value.DoubleValue
51.542

@<SCITEGIC>MOL_PROPERTY
W
SciTegic.value.DoubleValue
-57.954

@<SCITEGIC>MOL_PROPERTY
W(PB)
SciTegic.value.DoubleValue
-59.811

@<SCITEGIC>MOL_PROPERTY
W(SA)
SciTegic.value.DoubleValue
1.857

@<SCITEGIC>MOL_PROPERTY
Valence
SciTegic.value.DoubleValue
5.347

@<SCITEGIC>MOL_PROPERTY
Coulomb
SciTegic.value.DoubleValue
45.870

@<SCITEGIC>MOL_PROPERTY
VdW
SciTegic.value.DoubleValue
0.325

@<SCITEGIC>MOL_PROPERTY
VdW6
SciTegic.value.DoubleValue
-6.161

@<SCITEGIC>MOL_PROPERTY
VdW12
SciTegic.value.DoubleValue
6.486

@<SCITEGIC>MOL_PROPERTY
Bond
SciTegic.value.DoubleValue
0.201

@<SCITEGIC>MOL_PROPERTY
Angle
SciTegic.value.DoubleValue
1.484

@<SCITEGIC>MOL_PROPERTY
Pdih
SciTegic.value.DoubleValue
3.662

@<SCITEGIC>MOL_PROPERTY
Idih
SciTegic.value.DoubleValue
0.000

@<SCITEGIC>MOL_PROPERTY
Tether
SciTegic.value.DoubleValue
0.000

@<TRIPOS>MOLECULE
guest-s11_confgen4.mol2 : confsearch ligand conformer 384
          20          19           1
SMALL
USER_CHARGES
 
@<TRIPOS>ATOM
       1    N1      22.016598   18.850415   21.694807 N.4        1 MOL1        -0.5919
       2    H1      22.053798   18.481762   20.739235 H          1 MOL1         0.3682
       3    H2      21.499807   19.734434   21.660683 H          1 MOL1         0.3682
       4    H3      22.980566   19.069614   21.967572 H          1 MOL1         0.3682
       5    C1      21.369501   17.868134   22.651859 C.3        1 MOL1         0.0252
       6    H4      21.414983   18.281697   23.662848 H          1 MOL1         0.0971
       7    H5      21.973225   16.956765   22.630769 H          1 MOL1         0.0971
       8    C2      19.911308   17.514319   22.295632 C.3        1 MOL1        -0.1369
       9    H6      19.818935   17.365995   21.211530 H          1 MOL1         0.0997
      10    H7      19.683669   16.541006   22.750224 H          1 MOL1         0.0997
      11    C3      18.845035   18.528469   22.790024 C.3        1 MOL1        -0.1329
      12    H8      18.850710   18.572386   23.887979 H          1 MOL1         0.0997
      13    H9      17.859071   18.126731   22.517980 H          1 MOL1         0.0997
      14    C4      18.960129   19.957155   22.199998 C.3        1 MOL1        -0.1305
      15    H10     19.405879   19.923967   21.196769 H          1 MOL1         0.0997
      16    H11     17.947235   20.360410   22.059673 H          1 MOL1         0.0997
      17    C5      19.734152   20.933099   23.117736 C.3        1 MOL1        -0.2320
      18    H12     19.839454   21.914637   22.637449 H          1 MOL1         0.1008
      19    H13     19.195263   21.084034   24.062267 H          1 MOL1         0.1008
      20    H14     20.736556   20.568841   23.366924 H          1 MOL1         0.1008
@<TRIPOS>BOND
    1     1     2    1
    2     1     3    1
    3     1     4    1
    4     1     5    1
    5     5     6    1
    6     5     7    1
    7     5     8    1
    8     8     9    1
    9     8    10    1
   10     8    11    1
   11    11    12    1
   12    11    13    1
   13    11    14    1
   14    14    15    1
   15    14    16    1
   16    14    17    1
   17    17    18    1
   18    17    19    1
   19    17    20    1
@<TRIPOS>SUBSTRUCTURE
       1 MOL1            1 RESIDUE      1      MOL     
@<SCITEGIC>MOL_PROPERTY
VConf Rank
SciTegic.value.IntegerValue
384

@<SCITEGIC>MOL_PROPERTY
Conf_Id
SciTegic.value.IntegerValue
67

@<SCITEGIC>MOL_PROPERTY
Delta U+W
SciTegic.value.DoubleValue
5.353

@<SCITEGIC>MOL_PROPERTY
U+W
SciTegic.value.DoubleValue
-6.425

@<SCITEGIC>MOL_PROPERTY
Grad RMS
SciTegic.value.DoubleValue
0.000000

@<SCITEGIC>MOL_PROPERTY
U
SciTegic.value.DoubleValue
51.541

@<SCITEGIC>MOL_PROPERTY
W
SciTegic.value.DoubleValue
-57.966

@<SCITEGIC>MOL_PROPERTY
W(PB)
SciTegic.value.DoubleValue
-59.821

@<SCITEGIC>MOL_PROPERTY
W(SA)
SciTegic.value.DoubleValue
1.855

@<SCITEGIC>MOL_PROPERTY
Valence
SciTegic.value.DoubleValue
5.347

@<SCITEGIC>MOL_PROPERTY
Coulomb
SciTegic.value.DoubleValue
45.870

@<SCITEGIC>MOL_PROPERTY
VdW
SciTegic.value.DoubleValue
0.325

@<SCITEGIC>MOL_PROPERTY
VdW6
SciTegic.value.DoubleValue
-6.161

@<SCITEGIC>MOL_PROPERTY
VdW12
SciTegic.value.DoubleValue
6.486

@<SCITEGIC>MOL_PROPERTY
Bond
SciTegic.value.DoubleValue
0.201

@<SCITEGIC>MOL_PROPERTY
Angle
SciTegic.value.DoubleValue
1.485

@<SCITEGIC>MOL_PROPERTY
Pdih
SciTegic.value.DoubleValue
3.662

@<SCITEGIC>MOL_PROPERTY
Idih
SciTegic.value.DoubleValue
0.000

@<SCITEGIC>MOL_PROPERTY
Tether
SciTegic.value.DoubleValue
0.000

@<TRIPOS>MOLECULE
guest-s11_confgen4.mol2 : confsearch ligand conformer 385
          20          19           1
SMALL
USER_CHARGES
 
@<TRIPOS>ATOM
       1    N1      18.654246   17.408015   24.732386 N.4        1 MOL1        -0.5919
       2    H1      17.779191   17.940786   24.761042 H          1 MOL1         0.3682
       3    H2      18.409270   16.425379   24.893672 H          1 MOL1         0.3682
       4    H3      19.216744   17.709330   25.534379 H          1 MOL1         0.3682
       5    C1      19.390060   17.596990   23.421145 C.3        1 MOL1         0.0252
       6    H4      18.746987   17.228813   22.617143 H          1 MOL1         0.0971
       7    H5      20.292441   16.980165   23.448549 H          1 MOL1         0.0971
       8    C2      19.772792   19.062660   23.148028 C.3        1 MOL1        -0.1369
       9    H6      18.865194   19.680897   23.137242 H          1 MOL1         0.0997
      10    H7      20.405329   19.433122   23.965783 H          1 MOL1         0.0997
      11    C3      20.519805   19.211522   21.803951 C.3        1 MOL1        -0.1329
      12    H8      19.886173   18.835114   20.988710 H          1 MOL1         0.0997
      13    H9      21.424510   18.587705   21.816281 H          1 MOL1         0.0997
      14    C4      20.909136   20.679447   21.519074 C.3        1 MOL1        -0.1305
      15    H10     20.006717   21.306707   21.503803 H          1 MOL1         0.0997
      16    H11     21.544912   21.059311   22.331194 H          1 MOL1         0.0997
      17    C5      21.655100   20.823332   20.175268 C.3        1 MOL1        -0.2320
      18    H12     21.031016   20.483148   19.338602 H          1 MOL1         0.1008
      19    H13     21.922883   21.871806   19.990773 H          1 MOL1         0.1008
      20    H14     22.581287   20.233939   20.172493 H          1 MOL1         0.1008
@<TRIPOS>BOND
    1     1     2    1
    2     1     3    1
    3     1     4    1
    4     1     5    1
    5     5     6    1
    6     5     7    1
    7     5     8    1
    8     8     9    1
    9     8    10    1
   10     8    11    1
   11    11    12    1
   12    11    13    1
   13    11    14    1
   14    14    15    1
   15    14    16    1
   16    14    17    1
   17    17    18    1
   18    17    19    1
   19    17    20    1
@<TRIPOS>SUBSTRUCTURE
       1 MOL1            1 RESIDUE      1      MOL     
@<SCITEGIC>MOL_PROPERTY
VConf Rank
SciTegic.value.IntegerValue
385

@<SCITEGIC>MOL_PROPERTY
Conf_Id
SciTegic.value.IntegerValue
72

@<SCITEGIC>MOL_PROPERTY
Delta U+W
SciTegic.value.DoubleValue
0.000

@<SCITEGIC>MOL_PROPERTY
U+W
SciTegic.value.DoubleValue
-11.778

@<SCITEGIC>MOL_PROPERTY
Grad RMS
SciTegic.value.DoubleValue
0.000000

@<SCITEGIC>MOL_PROPERTY
U
SciTegic.value.DoubleValue
45.772

@<SCITEGIC>MOL_PROPERTY
W
SciTegic.value.DoubleValue
-57.550

@<SCITEGIC>MOL_PROPERTY
W(PB)
SciTegic.value.DoubleValue
-59.511

@<SCITEGIC>MOL_PROPERTY
W(SA)
SciTegic.value.DoubleValue
1.961

@<SCITEGIC>MOL_PROPERTY
Valence
SciTegic.value.DoubleValue
1.299

@<SCITEGIC>MOL_PROPERTY
Coulomb
SciTegic.value.DoubleValue
44.177

@<SCITEGIC>MOL_PROPERTY
VdW
SciTegic.value.DoubleValue
0.297

@<SCITEGIC>MOL_PROPERTY
VdW6
SciTegic.value.DoubleValue
-3.490

@<SCITEGIC>MOL_PROPERTY
VdW12
SciTegic.value.DoubleValue
3.786

@<SCITEGIC>MOL_PROPERTY
Bond
SciTegic.value.DoubleValue
0.096

@<SCITEGIC>MOL_PROPERTY
Angle
SciTegic.value.DoubleValue
0.381

@<SCITEGIC>MOL_PROPERTY
Pdih
SciTegic.value.DoubleValue
0.822

@<SCITEGIC>MOL_PROPERTY
Idih
SciTegic.value.DoubleValue
0.000

@<SCITEGIC>MOL_PROPERTY
Tether
SciTegic.value.DoubleValue
0.000

@<TRIPOS>MOLECULE
guest-s11_confgen4.mol2 : confsearch ligand conformer 386
          20          19           1
SMALL
USER_CHARGES
 
@<TRIPOS>ATOM
       1    N1      21.559426   21.805407   22.489053 N.4        1 MOL1        -0.5919
       2    H1      20.993455   22.145093   23.273035 H          1 MOL1         0.3682
       3    H2      22.444588   21.468092   22.880295 H          1 MOL1         0.3682
       4    H3      21.782679   22.620685   21.908483 H          1 MOL1         0.3682
       5    C1      20.843439   20.729645   21.697428 C.3        1 MOL1         0.0252
       6    H4      21.488669   20.438091   20.864260 H          1 MOL1         0.0971
       7    H5      19.928468   21.165203   21.286790 H          1 MOL1         0.0971
       8    C2      20.493663   19.489837   22.539926 C.3        1 MOL1        -0.1369
       9    H6      21.413546   19.065095   22.963269 H          1 MOL1         0.0997
      10    H7      19.861116   19.796746   23.382397 H          1 MOL1         0.0997
      11    C3      19.767419   18.418683   21.692384 C.3        1 MOL1        -0.1329
      12    H8      20.382422   18.180688   20.813253 H          1 MOL1         0.0997
      13    H9      18.823814   18.829064   21.306658 H          1 MOL1         0.0997
      14    C4      19.484109   17.107241   22.464736 C.3        1 MOL1        -0.1305
      15    H10     19.065552   16.369672   21.765636 H          1 MOL1         0.0997
      16    H11     20.428025   16.680571   22.831959 H          1 MOL1         0.0997
      17    C5      18.501831   17.288398   23.644499 C.3        1 MOL1        -0.2320
      18    H12     17.559457   17.740011   23.308354 H          1 MOL1         0.1008
      19    H13     18.264812   16.317908   24.099386 H          1 MOL1         0.1008
      20    H14     18.927538   17.924767   24.430139 H          1 MOL1         0.1008
@<TRIPOS>BOND
    1     1     2    1
    2     1     3    1
    3     1     4    1
    4     1     5    1
    5     5     6    1
    6     5     7    1
    7     5     8    1
    8     8     9    1
    9     8    10    1
   10     8    11    1
   11    11    12    1
   12    11    13    1
   13    11    14    1
   14    14    15    1
   15    14    16    1
   16    14    17    1
   17    17    18    1
   18    17    19    1
   19    17    20    1
@<TRIPOS>SUBSTRUCTURE
       1 MOL1            1 RESIDUE      1      MOL     
@<SCITEGIC>MOL_PROPERTY
VConf Rank
SciTegic.value.IntegerValue
386

@<SCITEGIC>MOL_PROPERTY
Conf_Id
SciTegic.value.IntegerValue
42

@<SCITEGIC>MOL_PROPERTY
Delta U+W
SciTegic.value.DoubleValue
0.508

@<SCITEGIC>MOL_PROPERTY
U+W
SciTegic.value.DoubleValue
-11.270

@<SCITEGIC>MOL_PROPERTY
Grad RMS
SciTegic.value.DoubleValue
0.000000

@<SCITEGIC>MOL_PROPERTY
U
SciTegic.value.DoubleValue
46.486

@<SCITEGIC>MOL_PROPERTY
W
SciTegic.value.DoubleValue
-57.756

@<SCITEGIC>MOL_PROPERTY
W(PB)
SciTegic.value.DoubleValue
-59.705

@<SCITEGIC>MOL_PROPERTY
W(SA)
SciTegic.value.DoubleValue
1.949

@<SCITEGIC>MOL_PROPERTY
Valence
SciTegic.value.DoubleValue
1.806

@<SCITEGIC>MOL_PROPERTY
Coulomb
SciTegic.value.DoubleValue
44.248

@<SCITEGIC>MOL_PROPERTY
VdW
SciTegic.value.DoubleValue
0.433

@<SCITEGIC>MOL_PROPERTY
VdW6
SciTegic.value.DoubleValue
-4.089

@<SCITEGIC>MOL_PROPERTY
VdW12
SciTegic.value.DoubleValue
4.522

@<SCITEGIC>MOL_PROPERTY
Bond
SciTegic.value.DoubleValue
0.131

@<SCITEGIC>MOL_PROPERTY
Angle
SciTegic.value.DoubleValue
0.628

@<SCITEGIC>MOL_PROPERTY
Pdih
SciTegic.value.DoubleValue
1.047

@<SCITEGIC>MOL_PROPERTY
Idih
SciTegic.value.DoubleValue
0.000

@<SCITEGIC>MOL_PROPERTY
Tether
SciTegic.value.DoubleValue
0.000

@<TRIPOS>MOLECULE
guest-s11_confgen4.mol2 : confsearch ligand conformer 387
          20          19           1
SMALL
USER_CHARGES
 
@<TRIPOS>ATOM
       1    N1      19.085680   21.458155   23.934894 N.4        1 MOL1        -0.5919
       2    H1      18.091104   21.298450   23.746009 H          1 MOL1         0.3682
       3    H2      19.292300   21.030851   24.843219 H          1 MOL1         0.3682
       4    H3      19.207949   22.470028   24.047786 H          1 MOL1         0.3682
       5    C1      19.967521   20.903879   22.834115 C.3        1 MOL1         0.0252
       6    H4      21.006304   21.135024   23.085128 H          1 MOL1         0.0971
       7    H5      19.715012   21.423448   21.905793 H          1 MOL1         0.0971
       8    C2      19.808044   19.385583   22.637606 C.3        1 MOL1        -0.1369
       9    H6      20.046542   18.876012   23.579691 H          1 MOL1         0.0997
      10    H7      18.760440   19.156360   22.401401 H          1 MOL1         0.0997
      11    C3      20.723436   18.864354   21.504684 C.3        1 MOL1        -0.1329
      12    H8      21.775014   19.052383   21.762399 H          1 MOL1         0.0997
      13    H9      20.522684   19.438949   20.589653 H          1 MOL1         0.0997
      14    C4      20.527494   17.360321   21.194588 C.3        1 MOL1        -0.1305
      15    H10     19.482005   17.171762   20.913029 H          1 MOL1         0.0997
      16    H11     21.133661   17.099603   20.315654 H          1 MOL1         0.0997
      17    C5      20.925376   16.433986   22.366393 C.3        1 MOL1        -0.2320
      18    H12     20.266452   16.572837   23.232397 H          1 MOL1         0.1008
      19    H13     20.854805   15.380961   22.064548 H          1 MOL1         0.1008
      20    H14     21.958519   16.622464   22.685930 H          1 MOL1         0.1008
@<TRIPOS>BOND
    1     1     2    1
    2     1     3    1
    3     1     4    1
    4     1     5    1
    5     5     6    1
    6     5     7    1
    7     5     8    1
    8     8     9    1
    9     8    10    1
   10     8    11    1
   11    11    12    1
   12    11    13    1
   13    11    14    1
   14    14    15    1
   15    14    16    1
   16    14    17    1
   17    17    18    1
   18    17    19    1
   19    17    20    1
@<TRIPOS>SUBSTRUCTURE
       1 MOL1            1 RESIDUE      1      MOL     
@<SCITEGIC>MOL_PROPERTY
VConf Rank
SciTegic.value.IntegerValue
387

@<SCITEGIC>MOL_PROPERTY
Conf_Id
SciTegic.value.IntegerValue
41

@<SCITEGIC>MOL_PROPERTY
Delta U+W
SciTegic.value.DoubleValue
0.515

@<SCITEGIC>MOL_PROPERTY
U+W
SciTegic.value.DoubleValue
-11.263

@<SCITEGIC>MOL_PROPERTY
Grad RMS
SciTegic.value.DoubleValue
0.000000

@<SCITEGIC>MOL_PROPERTY
U
SciTegic.value.DoubleValue
46.486

@<SCITEGIC>MOL_PROPERTY
W
SciTegic.value.DoubleValue
-57.749

@<SCITEGIC>MOL_PROPERTY
W(PB)
SciTegic.value.DoubleValue
-59.685

@<SCITEGIC>MOL_PROPERTY
W(SA)
SciTegic.value.DoubleValue
1.936

@<SCITEGIC>MOL_PROPERTY
Valence
SciTegic.value.DoubleValue
1.806

@<SCITEGIC>MOL_PROPERTY
Coulomb
SciTegic.value.DoubleValue
44.248

@<SCITEGIC>MOL_PROPERTY
VdW
SciTegic.value.DoubleValue
0.433

@<SCITEGIC>MOL_PROPERTY
VdW6
SciTegic.value.DoubleValue
-4.089

@<SCITEGIC>MOL_PROPERTY
VdW12
SciTegic.value.DoubleValue
4.522

@<SCITEGIC>MOL_PROPERTY
Bond
SciTegic.value.DoubleValue
0.131

@<SCITEGIC>MOL_PROPERTY
Angle
SciTegic.value.DoubleValue
0.628

@<SCITEGIC>MOL_PROPERTY
Pdih
SciTegic.value.DoubleValue
1.047

@<SCITEGIC>MOL_PROPERTY
Idih
SciTegic.value.DoubleValue
0.000

@<SCITEGIC>MOL_PROPERTY
Tether
SciTegic.value.DoubleValue
0.000

@<TRIPOS>MOLECULE
guest-s11_confgen4.mol2 : confsearch ligand conformer 388
          20          19           1
SMALL
USER_CHARGES
 
@<TRIPOS>ATOM
       1    N1      18.949869   21.045613   20.869496 N.4        1 MOL1        -0.5919
       2    H1      18.990520   21.771425   20.146277 H          1 MOL1         0.3682
       3    H2      18.690151   20.172543   20.401270 H          1 MOL1         0.3682
       4    H3      18.178749   21.293708   21.497204 H          1 MOL1         0.3682
       5    C1      20.265324   20.918414   21.613513 C.3        1 MOL1         0.0252
       6    H4      20.495670   21.895569   22.046766 H          1 MOL1         0.0971
       7    H5      21.045307   20.676889   20.886372 H          1 MOL1         0.0971
       8    C2      20.251057   19.856634   22.730782 C.3        1 MOL1        -0.1369
       9    H6      21.199632   19.927848   23.277353 H          1 MOL1         0.0997
      10    H7      19.455471   20.092194   23.449979 H          1 MOL1         0.0997
      11    C3      20.066995   18.417525   22.186538 C.3        1 MOL1        -0.1329
      12    H8      20.879107   18.180773   21.485188 H          1 MOL1         0.0997
      13    H9      19.134454   18.361404   21.609628 H          1 MOL1         0.0997
      14    C4      20.013238   17.340482   23.297425 C.3        1 MOL1        -0.1305
      15    H10     19.193536   17.565352   23.994122 H          1 MOL1         0.0997
      16    H11     19.768126   16.372686   22.837826 H          1 MOL1         0.0997
      17    C5      21.337694   17.196470   24.081543 C.3        1 MOL1        -0.2320
      18    H12     21.564175   18.099411   24.661778 H          1 MOL1         0.1008
      19    H13     21.276311   16.358561   24.788004 H          1 MOL1         0.1008
      20    H14     22.179143   17.002248   23.403866 H          1 MOL1         0.1008
@<TRIPOS>BOND
    1     1     2    1
    2     1     3    1
    3     1     4    1
    4     1     5    1
    5     5     6    1
    6     5     7    1
    7     5     8    1
    8     8     9    1
    9     8    10    1
   10     8    11    1
   11    11    12    1
   12    11    13    1
   13    11    14    1
   14    14    15    1
   15    14    16    1
   16    14    17    1
   17    17    18    1
   18    17    19    1
   19    17    20    1
@<TRIPOS>SUBSTRUCTURE
       1 MOL1            1 RESIDUE      1      MOL     
@<SCITEGIC>MOL_PROPERTY
VConf Rank
SciTegic.value.IntegerValue
388

@<SCITEGIC>MOL_PROPERTY
Conf_Id
SciTegic.value.IntegerValue
33

@<SCITEGIC>MOL_PROPERTY
Delta U+W
SciTegic.value.DoubleValue
0.703

@<SCITEGIC>MOL_PROPERTY
U+W
SciTegic.value.DoubleValue
-11.075

@<SCITEGIC>MOL_PROPERTY
Grad RMS
SciTegic.value.DoubleValue
0.000000

@<SCITEGIC>MOL_PROPERTY
U
SciTegic.value.DoubleValue
47.080

@<SCITEGIC>MOL_PROPERTY
W
SciTegic.value.DoubleValue
-58.154

@<SCITEGIC>MOL_PROPERTY
W(PB)
SciTegic.value.DoubleValue
-60.053

@<SCITEGIC>MOL_PROPERTY
W(SA)
SciTegic.value.DoubleValue
1.899

@<SCITEGIC>MOL_PROPERTY
Valence
SciTegic.value.DoubleValue
1.943

@<SCITEGIC>MOL_PROPERTY
Coulomb
SciTegic.value.DoubleValue
44.572

@<SCITEGIC>MOL_PROPERTY
VdW
SciTegic.value.DoubleValue
0.565

@<SCITEGIC>MOL_PROPERTY
VdW6
SciTegic.value.DoubleValue
-4.575

@<SCITEGIC>MOL_PROPERTY
VdW12
SciTegic.value.DoubleValue
5.139

@<SCITEGIC>MOL_PROPERTY
Bond
SciTegic.value.DoubleValue
0.158

@<SCITEGIC>MOL_PROPERTY
Angle
SciTegic.value.DoubleValue
0.700

@<SCITEGIC>MOL_PROPERTY
Pdih
SciTegic.value.DoubleValue
1.085

@<SCITEGIC>MOL_PROPERTY
Idih
SciTegic.value.DoubleValue
0.000

@<SCITEGIC>MOL_PROPERTY
Tether
SciTegic.value.DoubleValue
0.000

@<TRIPOS>MOLECULE
guest-s11_confgen4.mol2 : confsearch ligand conformer 389
          20          19           1
SMALL
USER_CHARGES
 
@<TRIPOS>ATOM
       1    N1      19.114215   20.788367   24.417383 N.4        1 MOL1        -0.5919
       2    H1      18.837210   21.714166   24.760405 H          1 MOL1         0.3682
       3    H2      18.508431   20.105070   24.882491 H          1 MOL1         0.3682
       4    H3      20.068926   20.621286   24.748364 H          1 MOL1         0.3682
       5    C1      19.015159   20.695230   22.906862 C.3        1 MOL1         0.0252
       6    H4      19.664227   21.462138   22.475579 H          1 MOL1         0.0971
       7    H5      17.983580   20.927483   22.628467 H          1 MOL1         0.0971
       8    C2      19.396901   19.313757   22.339705 C.3        1 MOL1        -0.1369
       9    H6      18.755060   18.543655   22.787674 H          1 MOL1         0.0997
      10    H7      19.179133   19.317524   21.264451 H          1 MOL1         0.0997
      11    C3      20.888513   18.963279   22.570743 C.3        1 MOL1        -0.1329
      12    H8      21.109560   18.996658   23.645747 H          1 MOL1         0.0997
      13    H9      21.524656   19.725953   22.100511 H          1 MOL1         0.0997
      14    C4      21.282193   17.563190   22.039951 C.3        1 MOL1        -0.1305
      15    H10     22.316648   17.349674   22.343689 H          1 MOL1         0.0997
      16    H11     20.657737   16.795233   22.517615 H          1 MOL1         0.0997
      17    C5      21.179610   17.435032   20.502805 C.3        1 MOL1        -0.2320
      18    H12     21.770662   18.212141   20.001044 H          1 MOL1         0.1008
      19    H13     21.559847   16.459612   20.172769 H          1 MOL1         0.1008
      20    H14     20.141183   17.516287   20.158799 H          1 MOL1         0.1008
@<TRIPOS>BOND
    1     1     2    1
    2     1     3    1
    3     1     4    1
    4     1     5    1
    5     5     6    1
    6     5     7    1
    7     5     8    1
    8     8     9    1
    9     8    10    1
   10     8    11    1
   11    11    12    1
   12    11    13    1
   13    11    14    1
   14    14    15    1
   15    14    16    1
   16    14    17    1
   17    17    18    1
   18    17    19    1
   19    17    20    1
@<TRIPOS>SUBSTRUCTURE
       1 MOL1            1 RESIDUE      1      MOL     
@<SCITEGIC>MOL_PROPERTY
VConf Rank
SciTegic.value.IntegerValue
389

@<SCITEGIC>MOL_PROPERTY
Conf_Id
SciTegic.value.IntegerValue
24

@<SCITEGIC>MOL_PROPERTY
Delta U+W
SciTegic.value.DoubleValue
0.847

@<SCITEGIC>MOL_PROPERTY
U+W
SciTegic.value.DoubleValue
-10.931

@<SCITEGIC>MOL_PROPERTY
Grad RMS
SciTegic.value.DoubleValue
0.000000

@<SCITEGIC>MOL_PROPERTY
U
SciTegic.value.DoubleValue
47.080

@<SCITEGIC>MOL_PROPERTY
W
SciTegic.value.DoubleValue
-58.011

@<SCITEGIC>MOL_PROPERTY
W(PB)
SciTegic.value.DoubleValue
-59.914

@<SCITEGIC>MOL_PROPERTY
W(SA)
SciTegic.value.DoubleValue
1.903

@<SCITEGIC>MOL_PROPERTY
Valence
SciTegic.value.DoubleValue
1.943

@<SCITEGIC>MOL_PROPERTY
Coulomb
SciTegic.value.DoubleValue
44.572

@<SCITEGIC>MOL_PROPERTY
VdW
SciTegic.value.DoubleValue
0.565

@<SCITEGIC>MOL_PROPERTY
VdW6
SciTegic.value.DoubleValue
-4.575

@<SCITEGIC>MOL_PROPERTY
VdW12
SciTegic.value.DoubleValue
5.140

@<SCITEGIC>MOL_PROPERTY
Bond
SciTegic.value.DoubleValue
0.158

@<SCITEGIC>MOL_PROPERTY
Angle
SciTegic.value.DoubleValue
0.700

@<SCITEGIC>MOL_PROPERTY
Pdih
SciTegic.value.DoubleValue
1.085

@<SCITEGIC>MOL_PROPERTY
Idih
SciTegic.value.DoubleValue
0.000

@<SCITEGIC>MOL_PROPERTY
Tether
SciTegic.value.DoubleValue
0.000

@<TRIPOS>MOLECULE
guest-s11_confgen4.mol2 : confsearch ligand conformer 390
          20          19           1
SMALL
USER_CHARGES
 
@<TRIPOS>ATOM
       1    N1      20.915232   17.169278   24.155258 N.4        1 MOL1        -0.5919
       2    H1      20.863927   16.162548   23.967239 H          1 MOL1         0.3682
       3    H2      21.899971   17.438618   24.065996 H          1 MOL1         0.3682
       4    H3      20.654607   17.301517   25.137549 H          1 MOL1         0.3682
       5    C1      20.023913   17.962763   23.221309 C.3        1 MOL1         0.0252
       6    H4      18.998450   17.605222   23.347674 H          1 MOL1         0.0971
       7    H5      20.338342   17.750523   22.196091 H          1 MOL1         0.0971
       8    C2      20.078284   19.480745   23.477043 C.3        1 MOL1        -0.1369
       9    H6      19.800947   19.679097   24.520835 H          1 MOL1         0.0997
      10    H7      21.108896   19.839146   23.359393 H          1 MOL1         0.0997
      11    C3      19.130179   20.279501   22.548022 C.3        1 MOL1        -0.1329
      12    H8      19.209929   21.348014   22.791299 H          1 MOL1         0.0997
      13    H9      18.091847   19.996133   22.769522 H          1 MOL1         0.0997
      14    C4      19.387752   20.084277   21.031853 C.3        1 MOL1        -0.1305
      15    H10     19.209128   19.038179   20.748040 H          1 MOL1         0.0997
      16    H11     18.651271   20.677848   20.472255 H          1 MOL1         0.0997
      17    C5      20.807163   20.507571   20.590147 C.3        1 MOL1        -0.2320
      18    H12     20.906989   20.438239   19.499216 H          1 MOL1         0.1008
      19    H13     21.018437   21.544724   20.881100 H          1 MOL1         0.1008
      20    H14     21.576019   19.862347   21.033070 H          1 MOL1         0.1008
@<TRIPOS>BOND
    1     1     2    1
    2     1     3    1
    3     1     4    1
    4     1     5    1
    5     5     6    1
    6     5     7    1
    7     5     8    1
    8     8     9    1
    9     8    10    1
   10     8    11    1
   11    11    12    1
   12    11    13    1
   13    11    14    1
   14    14    15    1
   15    14    16    1
   16    14    17    1
   17    17    18    1
   18    17    19    1
   19    17    20    1
@<TRIPOS>SUBSTRUCTURE
       1 MOL1            1 RESIDUE      1      MOL     
@<SCITEGIC>MOL_PROPERTY
VConf Rank
SciTegic.value.IntegerValue
390

@<SCITEGIC>MOL_PROPERTY
Conf_Id
SciTegic.value.IntegerValue
64

@<SCITEGIC>MOL_PROPERTY
Delta U+W
SciTegic.value.DoubleValue
0.707

@<SCITEGIC>MOL_PROPERTY
U+W
SciTegic.value.DoubleValue
-11.070

@<SCITEGIC>MOL_PROPERTY
Grad RMS
SciTegic.value.DoubleValue
0.000000

@<SCITEGIC>MOL_PROPERTY
U
SciTegic.value.DoubleValue
47.077

@<SCITEGIC>MOL_PROPERTY
W
SciTegic.value.DoubleValue
-58.148

@<SCITEGIC>MOL_PROPERTY
W(PB)
SciTegic.value.DoubleValue
-60.054

@<SCITEGIC>MOL_PROPERTY
W(SA)
SciTegic.value.DoubleValue
1.906

@<SCITEGIC>MOL_PROPERTY
Valence
SciTegic.value.DoubleValue
2.039

@<SCITEGIC>MOL_PROPERTY
Coulomb
SciTegic.value.DoubleValue
44.655

@<SCITEGIC>MOL_PROPERTY
VdW
SciTegic.value.DoubleValue
0.383

@<SCITEGIC>MOL_PROPERTY
VdW6
SciTegic.value.DoubleValue
-4.912

@<SCITEGIC>MOL_PROPERTY
VdW12
SciTegic.value.DoubleValue
5.295

@<SCITEGIC>MOL_PROPERTY
Bond
SciTegic.value.DoubleValue
0.159

@<SCITEGIC>MOL_PROPERTY
Angle
SciTegic.value.DoubleValue
0.856

@<SCITEGIC>MOL_PROPERTY
Pdih
SciTegic.value.DoubleValue
1.024

@<SCITEGIC>MOL_PROPERTY
Idih
SciTegic.value.DoubleValue
0.000

@<SCITEGIC>MOL_PROPERTY
Tether
SciTegic.value.DoubleValue
0.000

@<TRIPOS>MOLECULE
guest-s11_confgen4.mol2 : confsearch ligand conformer 391
          20          19           1
SMALL
USER_CHARGES
 
@<TRIPOS>ATOM
       1    N1      19.780978   17.767616   20.106469 N.4        1 MOL1        -0.5919
       2    H1      19.300638   16.866494   20.193414 H          1 MOL1         0.3682
       3    H2      19.077725   18.457923   19.825161 H          1 MOL1         0.3682
       4    H3      20.439805   17.678955   19.325716 H          1 MOL1         0.3682
       5    C1      20.480347   18.162637   21.391447 C.3        1 MOL1         0.0252
       6    H4      20.993067   19.112109   21.216500 H          1 MOL1         0.0971
       7    H5      21.232697   17.401377   21.614677 H          1 MOL1         0.0971
       8    C2      19.517619   18.305043   22.585388 C.3        1 MOL1        -0.1369
       9    H6      18.756470   19.062484   22.358692 H          1 MOL1         0.0997
      10    H7      18.977901   17.359180   22.726130 H          1 MOL1         0.0997
      11    C3      20.246938   18.664794   23.903974 C.3        1 MOL1        -0.1329
      12    H8      20.913501   17.836037   24.180285 H          1 MOL1         0.0997
      13    H9      19.506143   18.738652   24.712077 H          1 MOL1         0.0997
      14    C4      21.074426   19.974739   23.853662 C.3        1 MOL1        -0.1305
      15    H10     21.559685   20.120084   24.828998 H          1 MOL1         0.0997
      16    H11     21.889522   19.881052   23.123171 H          1 MOL1         0.0997
      17    C5      20.226262   21.225302   23.528517 C.3        1 MOL1        -0.2320
      18    H12     19.391126   21.330192   24.233161 H          1 MOL1         0.1008
      19    H13     20.838797   22.133628   23.596703 H          1 MOL1         0.1008
      20    H14     19.815568   21.180334   22.512179 H          1 MOL1         0.1008
@<TRIPOS>BOND
    1     1     2    1
    2     1     3    1
    3     1     4    1
    4     1     5    1
    5     5     6    1
    6     5     7    1
    7     5     8    1
    8     8     9    1
    9     8    10    1
   10     8    11    1
   11    11    12    1
   12    11    13    1
   13    11    14    1
   14    14    15    1
   15    14    16    1
   16    14    17    1
   17    17    18    1
   18    17    19    1
   19    17    20    1
@<TRIPOS>SUBSTRUCTURE
       1 MOL1            1 RESIDUE      1      MOL     
@<SCITEGIC>MOL_PROPERTY
VConf Rank
SciTegic.value.IntegerValue
391

@<SCITEGIC>MOL_PROPERTY
Conf_Id
SciTegic.value.IntegerValue
22

@<SCITEGIC>MOL_PROPERTY
Delta U+W
SciTegic.value.DoubleValue
0.731

@<SCITEGIC>MOL_PROPERTY
U+W
SciTegic.value.DoubleValue
-11.047

@<SCITEGIC>MOL_PROPERTY
Grad RMS
SciTegic.value.DoubleValue
0.000000

@<SCITEGIC>MOL_PROPERTY
U
SciTegic.value.DoubleValue
47.078

@<SCITEGIC>MOL_PROPERTY
W
SciTegic.value.DoubleValue
-58.125

@<SCITEGIC>MOL_PROPERTY
W(PB)
SciTegic.value.DoubleValue
-60.031

@<SCITEGIC>MOL_PROPERTY
W(SA)
SciTegic.value.DoubleValue
1.906

@<SCITEGIC>MOL_PROPERTY
Valence
SciTegic.value.DoubleValue
2.039

@<SCITEGIC>MOL_PROPERTY
Coulomb
SciTegic.value.DoubleValue
44.655

@<SCITEGIC>MOL_PROPERTY
VdW
SciTegic.value.DoubleValue
0.383

@<SCITEGIC>MOL_PROPERTY
VdW6
SciTegic.value.DoubleValue
-4.913

@<SCITEGIC>MOL_PROPERTY
VdW12
SciTegic.value.DoubleValue
5.296

@<SCITEGIC>MOL_PROPERTY
Bond
SciTegic.value.DoubleValue
0.159

@<SCITEGIC>MOL_PROPERTY
Angle
SciTegic.value.DoubleValue
0.856

@<SCITEGIC>MOL_PROPERTY
Pdih
SciTegic.value.DoubleValue
1.024

@<SCITEGIC>MOL_PROPERTY
Idih
SciTegic.value.DoubleValue
0.000

@<SCITEGIC>MOL_PROPERTY
Tether
SciTegic.value.DoubleValue
0.000

@<TRIPOS>MOLECULE
guest-s11_confgen4.mol2 : confsearch ligand conformer 392
          20          19           1
SMALL
USER_CHARGES
 
@<TRIPOS>ATOM
       1    N1      19.280907   21.368339   23.941365 N.4        1 MOL1        -0.5919
       2    H1      20.127060   21.648053   24.447447 H          1 MOL1         0.3682
       3    H2      19.009134   22.159217   23.348943 H          1 MOL1         0.3682
       4    H3      18.540260   21.253095   24.641117 H          1 MOL1         0.3682
       5    C1      19.495542   20.103647   23.134459 C.3        1 MOL1         0.0252
       6    H4      18.551021   19.849628   22.645838 H          1 MOL1         0.0971
       7    H5      19.751695   19.304029   23.833217 H          1 MOL1         0.0971
       8    C2      20.605994   20.242321   22.077890 C.3        1 MOL1        -0.1369
       9    H6      20.395115   21.123708   21.457722 H          1 MOL1         0.0997
      10    H7      21.564015   20.437257   22.577872 H          1 MOL1         0.0997
      11    C3      20.745763   19.010417   21.147948 C.3        1 MOL1        -0.1329
      12    H8      21.497034   19.256942   20.384818 H          1 MOL1         0.0997
      13    H9      19.809173   18.842235   20.598526 H          1 MOL1         0.0997
      14    C4      21.192924   17.705038   21.855919 C.3        1 MOL1        -0.1305
      15    H10     21.734931   17.085971   21.127161 H          1 MOL1         0.0997
      16    H11     21.913689   17.931696   22.653957 H          1 MOL1         0.0997
      17    C5      20.022291   16.861779   22.413922 C.3        1 MOL1        -0.2320
      18    H12     19.484074   17.376996   23.216261 H          1 MOL1         0.1008
      19    H13     19.301677   16.616482   21.623006 H          1 MOL1         0.1008
      20    H14     20.396308   15.915760   22.826407 H          1 MOL1         0.1008
@<TRIPOS>BOND
    1     1     2    1
    2     1     3    1
    3     1     4    1
    4     1     5    1
    5     5     6    1
    6     5     7    1
    7     5     8    1
    8     8     9    1
    9     8    10    1
   10     8    11    1
   11    11    12    1
   12    11    13    1
   13    11    14    1
   14    14    15    1
   15    14    16    1
   16    14    17    1
   17    17    18    1
   18    17    19    1
   19    17    20    1
@<TRIPOS>SUBSTRUCTURE
       1 MOL1            1 RESIDUE      1      MOL     
@<SCITEGIC>MOL_PROPERTY
VConf Rank
SciTegic.value.IntegerValue
392

@<SCITEGIC>MOL_PROPERTY
Conf_Id
SciTegic.value.IntegerValue
61

@<SCITEGIC>MOL_PROPERTY
Delta U+W
SciTegic.value.DoubleValue
2.669

@<SCITEGIC>MOL_PROPERTY
U+W
SciTegic.value.DoubleValue
-9.108

@<SCITEGIC>MOL_PROPERTY
Grad RMS
SciTegic.value.DoubleValue
0.000000

@<SCITEGIC>MOL_PROPERTY
U
SciTegic.value.DoubleValue
48.916

@<SCITEGIC>MOL_PROPERTY
W
SciTegic.value.DoubleValue
-58.025

@<SCITEGIC>MOL_PROPERTY
W(PB)
SciTegic.value.DoubleValue
-59.935

@<SCITEGIC>MOL_PROPERTY
W(SA)
SciTegic.value.DoubleValue
1.911

@<SCITEGIC>MOL_PROPERTY
Valence
SciTegic.value.DoubleValue
3.785

@<SCITEGIC>MOL_PROPERTY
Coulomb
SciTegic.value.DoubleValue
44.716

@<SCITEGIC>MOL_PROPERTY
VdW
SciTegic.value.DoubleValue
0.415

@<SCITEGIC>MOL_PROPERTY
VdW6
SciTegic.value.DoubleValue
-4.836

@<SCITEGIC>MOL_PROPERTY
VdW12
SciTegic.value.DoubleValue
5.251

@<SCITEGIC>MOL_PROPERTY
Bond
SciTegic.value.DoubleValue
0.175

@<SCITEGIC>MOL_PROPERTY
Angle
SciTegic.value.DoubleValue
1.195

@<SCITEGIC>MOL_PROPERTY
Pdih
SciTegic.value.DoubleValue
2.415

@<SCITEGIC>MOL_PROPERTY
Idih
SciTegic.value.DoubleValue
0.000

@<SCITEGIC>MOL_PROPERTY
Tether
SciTegic.value.DoubleValue
0.000

@<TRIPOS>MOLECULE
guest-s11_confgen4.mol2 : confsearch ligand conformer 393
          20          19           1
SMALL
USER_CHARGES
 
@<TRIPOS>ATOM
       1    N1      22.022917   20.323043   22.704354 N.4        1 MOL1        -0.5919
       2    H1      22.601361   20.826503   23.385216 H          1 MOL1         0.3682
       3    H2      22.412600   20.524117   21.778061 H          1 MOL1         0.3682
       4    H3      21.089210   20.740407   22.736345 H          1 MOL1         0.3682
       5    C1      21.988479   18.833617   22.988951 C.3        1 MOL1         0.0252
       6    H4      21.620292   18.681542   24.007110 H          1 MOL1         0.0971
       7    H5      23.021551   18.477893   22.946717 H          1 MOL1         0.0971
       8    C2      21.136299   18.015560   21.995951 C.3        1 MOL1        -0.1369
       9    H6      21.315327   18.363992   20.970106 H          1 MOL1         0.0997
      10    H7      21.492547   16.977302   22.027227 H          1 MOL1         0.0997
      11    C3      19.617237   18.005355   22.305978 C.3        1 MOL1        -0.1329
      12    H8      19.451988   17.599648   23.313728 H          1 MOL1         0.0997
      13    H9      19.131610   17.305476   21.611848 H          1 MOL1         0.0997
      14    C4      18.928898   19.385276   22.186327 C.3        1 MOL1        -0.1305
      15    H10     19.294140   20.057238   22.973039 H          1 MOL1         0.0997
      16    H11     19.179084   19.845324   21.220042 H          1 MOL1         0.0997
      17    C5      17.394895   19.268175   22.313363 C.3        1 MOL1        -0.2320
      18    H12     16.922748   20.256180   22.236066 H          1 MOL1         0.1008
      19    H13     16.979264   18.634301   21.519211 H          1 MOL1         0.1008
      20    H14     17.110849   18.834081   23.280912 H          1 MOL1         0.1008
@<TRIPOS>BOND
    1     1     2    1
    2     1     3    1
    3     1     4    1
    4     1     5    1
    5     5     6    1
    6     5     7    1
    7     5     8    1
    8     8     9    1
    9     8    10    1
   10     8    11    1
   11    11    12    1
   12    11    13    1
   13    11    14    1
   14    14    15    1
   15    14    16    1
   16    14    17    1
   17    17    18    1
   18    17    19    1
   19    17    20    1
@<TRIPOS>SUBSTRUCTURE
       1 MOL1            1 RESIDUE      1      MOL     
@<SCITEGIC>MOL_PROPERTY
VConf Rank
SciTegic.value.IntegerValue
393

@<SCITEGIC>MOL_PROPERTY
Conf_Id
SciTegic.value.IntegerValue
69

@<SCITEGIC>MOL_PROPERTY
Delta U+W
SciTegic.value.DoubleValue
2.811

@<SCITEGIC>MOL_PROPERTY
U+W
SciTegic.value.DoubleValue
-8.967

@<SCITEGIC>MOL_PROPERTY
Grad RMS
SciTegic.value.DoubleValue
0.000000

@<SCITEGIC>MOL_PROPERTY
U
SciTegic.value.DoubleValue
49.216

@<SCITEGIC>MOL_PROPERTY
W
SciTegic.value.DoubleValue
-58.183

@<SCITEGIC>MOL_PROPERTY
W(PB)
SciTegic.value.DoubleValue
-60.064

@<SCITEGIC>MOL_PROPERTY
W(SA)
SciTegic.value.DoubleValue
1.881

@<SCITEGIC>MOL_PROPERTY
Valence
SciTegic.value.DoubleValue
2.929

@<SCITEGIC>MOL_PROPERTY
Coulomb
SciTegic.value.DoubleValue
46.006

@<SCITEGIC>MOL_PROPERTY
VdW
SciTegic.value.DoubleValue
0.281

@<SCITEGIC>MOL_PROPERTY
VdW6
SciTegic.value.DoubleValue
-4.909

@<SCITEGIC>MOL_PROPERTY
VdW12
SciTegic.value.DoubleValue
5.190

@<SCITEGIC>MOL_PROPERTY
Bond
SciTegic.value.DoubleValue
0.156

@<SCITEGIC>MOL_PROPERTY
Angle
SciTegic.value.DoubleValue
0.974

@<SCITEGIC>MOL_PROPERTY
Pdih
SciTegic.value.DoubleValue
1.799

@<SCITEGIC>MOL_PROPERTY
Idih
SciTegic.value.DoubleValue
0.000

@<SCITEGIC>MOL_PROPERTY
Tether
SciTegic.value.DoubleValue
0.000

@<TRIPOS>MOLECULE
guest-s11_confgen4.mol2 : confsearch ligand conformer 394
          20          19           1
SMALL
USER_CHARGES
 
@<TRIPOS>ATOM
       1    N1      20.964131   21.191247   23.049909 N.4        1 MOL1        -0.5919
       2    H1      20.675026   21.012261   22.084813 H          1 MOL1         0.3682
       3    H2      20.221062   21.742163   23.491092 H          1 MOL1         0.3682
       4    H3      21.794369   21.791819   23.009164 H          1 MOL1         0.3682
       5    C1      21.237176   19.906104   23.807817 C.3        1 MOL1         0.0252
       6    H4      21.549413   20.191791   24.816008 H          1 MOL1         0.0971
       7    H5      22.073432   19.389738   23.328882 H          1 MOL1         0.0971
       8    C2      20.024381   18.957261   23.909319 C.3        1 MOL1        -0.1369
       9    H6      20.185477   18.301530   24.775307 H          1 MOL1         0.0997
      10    H7      19.114966   19.531074   24.131844 H          1 MOL1         0.0997
      11    C3      19.804646   18.056517   22.666680 C.3        1 MOL1        -0.1329
      12    H8      18.995341   17.349492   22.896066 H          1 MOL1         0.0997
      13    H9      20.702280   17.446953   22.493040 H          1 MOL1         0.0997
      14    C4      19.444733   18.824576   21.373290 C.3        1 MOL1        -0.1305
      15    H10     18.614096   19.517255   21.568697 H          1 MOL1         0.0997
      16    H11     20.300938   19.425477   21.042106 H          1 MOL1         0.0997
      17    C5      19.048978   17.862743   20.232557 C.3        1 MOL1        -0.2320
      18    H12     18.168386   17.266549   20.505202 H          1 MOL1         0.1008
      19    H13     18.806122   18.422455   19.319981 H          1 MOL1         0.1008
      20    H14     19.869122   17.172379   19.995845 H          1 MOL1         0.1008
@<TRIPOS>BOND
    1     1     2    1
    2     1     3    1
    3     1     4    1
    4     1     5    1
    5     5     6    1
    6     5     7    1
    7     5     8    1
    8     8     9    1
    9     8    10    1
   10     8    11    1
   11    11    12    1
   12    11    13    1
   13    11    14    1
   14    14    15    1
   15    14    16    1
   16    14    17    1
   17    17    18    1
   18    17    19    1
   19    17    20    1
@<TRIPOS>SUBSTRUCTURE
       1 MOL1            1 RESIDUE      1      MOL     
@<SCITEGIC>MOL_PROPERTY
VConf Rank
SciTegic.value.IntegerValue
394

@<SCITEGIC>MOL_PROPERTY
Conf_Id
SciTegic.value.IntegerValue
26

@<SCITEGIC>MOL_PROPERTY
Delta U+W
SciTegic.value.DoubleValue
2.809

@<SCITEGIC>MOL_PROPERTY
U+W
SciTegic.value.DoubleValue
-8.969

@<SCITEGIC>MOL_PROPERTY
Grad RMS
SciTegic.value.DoubleValue
0.000000

@<SCITEGIC>MOL_PROPERTY
U
SciTegic.value.DoubleValue
49.216

@<SCITEGIC>MOL_PROPERTY
W
SciTegic.value.DoubleValue
-58.185

@<SCITEGIC>MOL_PROPERTY
W(PB)
SciTegic.value.DoubleValue
-60.088

@<SCITEGIC>MOL_PROPERTY
W(SA)
SciTegic.value.DoubleValue
1.903

@<SCITEGIC>MOL_PROPERTY
Valence
SciTegic.value.DoubleValue
2.929

@<SCITEGIC>MOL_PROPERTY
Coulomb
SciTegic.value.DoubleValue
46.006

@<SCITEGIC>MOL_PROPERTY
VdW
SciTegic.value.DoubleValue
0.281

@<SCITEGIC>MOL_PROPERTY
VdW6
SciTegic.value.DoubleValue
-4.909

@<SCITEGIC>MOL_PROPERTY
VdW12
SciTegic.value.DoubleValue
5.190

@<SCITEGIC>MOL_PROPERTY
Bond
SciTegic.value.DoubleValue
0.156

@<SCITEGIC>MOL_PROPERTY
Angle
SciTegic.value.DoubleValue
0.974

@<SCITEGIC>MOL_PROPERTY
Pdih
SciTegic.value.DoubleValue
1.799

@<SCITEGIC>MOL_PROPERTY
Idih
SciTegic.value.DoubleValue
0.000

@<SCITEGIC>MOL_PROPERTY
Tether
SciTegic.value.DoubleValue
0.000

@<TRIPOS>MOLECULE
guest-s11_confgen4.mol2 : confsearch ligand conformer 395
          20          19           1
SMALL
USER_CHARGES
 
@<TRIPOS>ATOM
       1    N1      21.597473   18.615753   24.304531 N.4        1 MOL1        -0.5919
       2    H1      20.984059   19.370142   24.626337 H          1 MOL1         0.3682
       3    H2      21.365047   17.781828   24.852787 H          1 MOL1         0.3682
       4    H3      22.555965   18.880015   24.555067 H          1 MOL1         0.3682
       5    C1      21.451184   18.370303   22.815453 C.3        1 MOL1         0.0252
       6    H4      22.153024   17.579201   22.537811 H          1 MOL1         0.0971
       7    H5      21.744182   19.283031   22.290084 H          1 MOL1         0.0971
       8    C2      20.025747   17.961589   22.391927 C.3        1 MOL1        -0.1369
       9    H6      20.028055   17.730453   21.319033 H          1 MOL1         0.0997
      10    H7      19.754636   17.026181   22.899025 H          1 MOL1         0.0997
      11    C3      18.946792   19.035584   22.690903 C.3        1 MOL1        -0.1329
      12    H8      18.834144   19.144845   23.777908 H          1 MOL1         0.0997
      13    H9      17.975875   18.672079   22.327058 H          1 MOL1         0.0997
      14    C4      19.227565   20.429135   22.072669 C.3        1 MOL1        -0.1305
      15    H10     18.417077   21.111786   22.364126 H          1 MOL1         0.0997
      16    H11     20.147192   20.854967   22.496284 H          1 MOL1         0.0997
      17    C5      19.328636   20.406533   20.530554 C.3        1 MOL1        -0.2320
      18    H12     18.427092   19.969327   20.082190 H          1 MOL1         0.1008
      19    H13     19.438453   21.425488   20.137417 H          1 MOL1         0.1008
      20    H14     20.196673   19.827153   20.192274 H          1 MOL1         0.1008
@<TRIPOS>BOND
    1     1     2    1
    2     1     3    1
    3     1     4    1
    4     1     5    1
    5     5     6    1
    6     5     7    1
    7     5     8    1
    8     8     9    1
    9     8    10    1
   10     8    11    1
   11    11    12    1
   12    11    13    1
   13    11    14    1
   14    14    15    1
   15    14    16    1
   16    14    17    1
   17    17    18    1
   18    17    19    1
   19    17    20    1
@<TRIPOS>SUBSTRUCTURE
       1 MOL1            1 RESIDUE      1      MOL     
@<SCITEGIC>MOL_PROPERTY
VConf Rank
SciTegic.value.IntegerValue
395

@<SCITEGIC>MOL_PROPERTY
Conf_Id
SciTegic.value.IntegerValue
2

@<SCITEGIC>MOL_PROPERTY
Delta U+W
SciTegic.value.DoubleValue
0.994

@<SCITEGIC>MOL_PROPERTY
U+W
SciTegic.value.DoubleValue
-10.784

@<SCITEGIC>MOL_PROPERTY
Grad RMS
SciTegic.value.DoubleValue
0.000000

@<SCITEGIC>MOL_PROPERTY
U
SciTegic.value.DoubleValue
47.562

@<SCITEGIC>MOL_PROPERTY
W
SciTegic.value.DoubleValue
-58.346

@<SCITEGIC>MOL_PROPERTY
W(PB)
SciTegic.value.DoubleValue
-60.221

@<SCITEGIC>MOL_PROPERTY
W(SA)
SciTegic.value.DoubleValue
1.875

@<SCITEGIC>MOL_PROPERTY
Valence
SciTegic.value.DoubleValue
2.149

@<SCITEGIC>MOL_PROPERTY
Coulomb
SciTegic.value.DoubleValue
45.034

@<SCITEGIC>MOL_PROPERTY
VdW
SciTegic.value.DoubleValue
0.378

@<SCITEGIC>MOL_PROPERTY
VdW6
SciTegic.value.DoubleValue
-5.599

@<SCITEGIC>MOL_PROPERTY
VdW12
SciTegic.value.DoubleValue
5.977

@<SCITEGIC>MOL_PROPERTY
Bond
SciTegic.value.DoubleValue
0.185

@<SCITEGIC>MOL_PROPERTY
Angle
SciTegic.value.DoubleValue
0.935

@<SCITEGIC>MOL_PROPERTY
Pdih
SciTegic.value.DoubleValue
1.028

@<SCITEGIC>MOL_PROPERTY
Idih
SciTegic.value.DoubleValue
0.000

@<SCITEGIC>MOL_PROPERTY
Tether
SciTegic.value.DoubleValue
0.000

@<TRIPOS>MOLECULE
guest-s11_confgen4.mol2 : confsearch ligand conformer 396
          20          19           1
SMALL
USER_CHARGES
 
@<TRIPOS>ATOM
       1    N1      20.575202   19.306634   20.087937 N.4        1 MOL1        -0.5919
       2    H1      21.246965   20.021595   19.791958 H          1 MOL1         0.3682
       3    H2      21.115632   18.498482   20.410063 H          1 MOL1         0.3682
       4    H3      20.064292   19.011778   19.249283 H          1 MOL1         0.3682
       5    C1      19.640995   19.822307   21.165125 C.3        1 MOL1         0.0252
       6    H4      18.933048   19.026403   21.410651 H          1 MOL1         0.0971
       7    H5      19.077366   20.659419   20.744325 H          1 MOL1         0.0971
       8    C2      20.366464   20.285608   22.444708 C.3        1 MOL1        -0.1369
       9    H6      21.049642   21.107456   22.192771 H          1 MOL1         0.0997
      10    H7      19.627791   20.711743   23.135580 H          1 MOL1         0.0997
      11    C3      21.161574   19.162109   23.160628 C.3        1 MOL1        -0.1329
      12    H8      21.613632   19.575225   24.072866 H          1 MOL1         0.0997
      13    H9      22.003185   18.851961   22.526825 H          1 MOL1         0.0997
      14    C4      20.326235   17.910695   23.533735 C.3        1 MOL1        -0.1305
      15    H10     19.943222   17.424562   22.626281 H          1 MOL1         0.0997
      16    H11     20.989322   17.176371   24.012204 H          1 MOL1         0.0997
      17    C5      19.153074   18.219921   24.491290 C.3        1 MOL1        -0.2320
      18    H12     18.402348   18.862121   24.014224 H          1 MOL1         0.1008
      19    H13     18.649597   17.292853   24.794508 H          1 MOL1         0.1008
      20    H14     19.507625   18.722033   25.400761 H          1 MOL1         0.1008
@<TRIPOS>BOND
    1     1     2    1
    2     1     3    1
    3     1     4    1
    4     1     5    1
    5     5     6    1
    6     5     7    1
    7     5     8    1
    8     8     9    1
    9     8    10    1
   10     8    11    1
   11    11    12    1
   12    11    13    1
   13    11    14    1
   14    14    15    1
   15    14    16    1
   16    14    17    1
   17    17    18    1
   18    17    19    1
   19    17    20    1
@<TRIPOS>SUBSTRUCTURE
       1 MOL1            1 RESIDUE      1      MOL     
@<SCITEGIC>MOL_PROPERTY
VConf Rank
SciTegic.value.IntegerValue
396

@<SCITEGIC>MOL_PROPERTY
Conf_Id
SciTegic.value.IntegerValue
1

@<SCITEGIC>MOL_PROPERTY
Delta U+W
SciTegic.value.DoubleValue
1.032

@<SCITEGIC>MOL_PROPERTY
U+W
SciTegic.value.DoubleValue
-10.746

@<SCITEGIC>MOL_PROPERTY
Grad RMS
SciTegic.value.DoubleValue
0.000000

@<SCITEGIC>MOL_PROPERTY
U
SciTegic.value.DoubleValue
47.562

@<SCITEGIC>MOL_PROPERTY
W
SciTegic.value.DoubleValue
-58.308

@<SCITEGIC>MOL_PROPERTY
W(PB)
SciTegic.value.DoubleValue
-60.184

@<SCITEGIC>MOL_PROPERTY
W(SA)
SciTegic.value.DoubleValue
1.877

@<SCITEGIC>MOL_PROPERTY
Valence
SciTegic.value.DoubleValue
2.149

@<SCITEGIC>MOL_PROPERTY
Coulomb
SciTegic.value.DoubleValue
45.035

@<SCITEGIC>MOL_PROPERTY
VdW
SciTegic.value.DoubleValue
0.378

@<SCITEGIC>MOL_PROPERTY
VdW6
SciTegic.value.DoubleValue
-5.599

@<SCITEGIC>MOL_PROPERTY
VdW12
SciTegic.value.DoubleValue
5.978

@<SCITEGIC>MOL_PROPERTY
Bond
SciTegic.value.DoubleValue
0.185

@<SCITEGIC>MOL_PROPERTY
Angle
SciTegic.value.DoubleValue
0.935

@<SCITEGIC>MOL_PROPERTY
Pdih
SciTegic.value.DoubleValue
1.028

@<SCITEGIC>MOL_PROPERTY
Idih
SciTegic.value.DoubleValue
0.000

@<SCITEGIC>MOL_PROPERTY
Tether
SciTegic.value.DoubleValue
0.000

@<TRIPOS>MOLECULE
guest-s11_confgen4.mol2 : confsearch ligand conformer 397
          20          19           1
SMALL
USER_CHARGES
 
@<TRIPOS>ATOM
       1    N1      21.602187   18.574916   20.671485 N.4        1 MOL1        -0.5919
       2    H1      21.267376   17.886966   19.989783 H          1 MOL1         0.3682
       3    H2      21.132679   19.460851   20.463242 H          1 MOL1         0.3682
       4    H3      22.601102   18.715050   20.487431 H          1 MOL1         0.3682
       5    C1      21.350172   18.125133   22.097648 C.3        1 MOL1         0.0252
       6    H4      21.756774   18.885155   22.766648 H          1 MOL1         0.0971
       7    H5      21.914498   17.201993   22.255358 H          1 MOL1         0.0971
       8    C2      19.861846   17.868863   22.416908 C.3        1 MOL1        -0.1369
       9    H6      19.489814   17.108189   21.717775 H          1 MOL1         0.0997
      10    H7      19.775826   17.424767   23.417407 H          1 MOL1         0.0997
      11    C3      18.952087   19.123490   22.324319 C.3        1 MOL1        -0.1329
      12    H8      17.922777   18.780503   22.150239 H          1 MOL1         0.0997
      13    H9      19.211648   19.726160   21.444467 H          1 MOL1         0.0997
      14    C4      18.934234   20.016667   23.591580 C.3        1 MOL1        -0.1305
      15    H10     18.191183   20.812462   23.441468 H          1 MOL1         0.0997
      16    H11     18.581113   19.431770   24.452383 H          1 MOL1         0.0997
      17    C5      20.290284   20.670877   23.936644 C.3        1 MOL1        -0.2320
      18    H12     20.727234   21.169033   23.061615 H          1 MOL1         0.1008
      19    H13     20.160695   21.426469   24.722275 H          1 MOL1         0.1008
      20    H14     21.005759   19.931445   24.315315 H          1 MOL1         0.1008
@<TRIPOS>BOND
    1     1     2    1
    2     1     3    1
    3     1     4    1
    4     1     5    1
    5     5     6    1
    6     5     7    1
    7     5     8    1
    8     8     9    1
    9     8    10    1
   10     8    11    1
   11    11    12    1
   12    11    13    1
   13    11    14    1
   14    14    15    1
   15    14    16    1
   16    14    17    1
   17    17    18    1
   18    17    19    1
   19    17    20    1
@<TRIPOS>SUBSTRUCTURE
       1 MOL1            1 RESIDUE      1      MOL     
@<SCITEGIC>MOL_PROPERTY
VConf Rank
SciTegic.value.IntegerValue
397

@<SCITEGIC>MOL_PROPERTY
Conf_Id
SciTegic.value.IntegerValue
80

@<SCITEGIC>MOL_PROPERTY
Delta U+W
SciTegic.value.DoubleValue
2.920

@<SCITEGIC>MOL_PROPERTY
U+W
SciTegic.value.DoubleValue
-8.857

@<SCITEGIC>MOL_PROPERTY
Grad RMS
SciTegic.value.DoubleValue
0.000000

@<SCITEGIC>MOL_PROPERTY
U
SciTegic.value.DoubleValue
49.434

@<SCITEGIC>MOL_PROPERTY
W
SciTegic.value.DoubleValue
-58.292

@<SCITEGIC>MOL_PROPERTY
W(PB)
SciTegic.value.DoubleValue
-60.170

@<SCITEGIC>MOL_PROPERTY
W(SA)
SciTegic.value.DoubleValue
1.879

@<SCITEGIC>MOL_PROPERTY
Valence
SciTegic.value.DoubleValue
3.798

@<SCITEGIC>MOL_PROPERTY
Coulomb
SciTegic.value.DoubleValue
45.253

@<SCITEGIC>MOL_PROPERTY
VdW
SciTegic.value.DoubleValue
0.384

@<SCITEGIC>MOL_PROPERTY
VdW6
SciTegic.value.DoubleValue
-5.595

@<SCITEGIC>MOL_PROPERTY
VdW12
SciTegic.value.DoubleValue
5.979

@<SCITEGIC>MOL_PROPERTY
Bond
SciTegic.value.DoubleValue
0.198

@<SCITEGIC>MOL_PROPERTY
Angle
SciTegic.value.DoubleValue
1.368

@<SCITEGIC>MOL_PROPERTY
Pdih
SciTegic.value.DoubleValue
2.231

@<SCITEGIC>MOL_PROPERTY
Idih
SciTegic.value.DoubleValue
0.000

@<SCITEGIC>MOL_PROPERTY
Tether
SciTegic.value.DoubleValue
0.000

@<TRIPOS>MOLECULE
guest-s11_confgen4.mol2 : confsearch ligand conformer 398
          20          19           1
SMALL
USER_CHARGES
 
@<TRIPOS>ATOM
       1    N1      18.703751   17.523884   23.124987 N.4        1 MOL1        -0.5919
       2    H1      18.594717   17.313516   24.121956 H          1 MOL1         0.3682
       3    H2      17.933509   17.056206   22.635753 H          1 MOL1         0.3682
       4    H3      19.570838   17.076430   22.814129 H          1 MOL1         0.3682
       5    C1      18.714125   19.017198   22.861052 C.3        1 MOL1         0.0252
       6    H4      17.745690   19.413429   23.178318 H          1 MOL1         0.0971
       7    H5      18.801345   19.167584   21.783883 H          1 MOL1         0.0971
       8    C2      19.837334   19.773637   23.601949 C.3        1 MOL1        -0.1369
       9    H6      19.698964   20.854356   23.465867 H          1 MOL1         0.0997
      10    H7      19.719656   19.589023   24.678002 H          1 MOL1         0.0997
      11    C3      21.277196   19.375871   23.178977 C.3        1 MOL1        -0.1329
      12    H8      21.358687   18.288073   23.057430 H          1 MOL1         0.0997
      13    H9      21.953139   19.628742   24.007580 H          1 MOL1         0.0997
      14    C4      21.810762   20.091904   21.911442 C.3        1 MOL1        -0.1305
      15    H10     21.817024   21.178704   22.074561 H          1 MOL1         0.0997
      16    H11     22.861097   19.801571   21.768435 H          1 MOL1         0.0997
      17    C5      21.032841   19.771434   20.616040 C.3        1 MOL1        -0.2320
      18    H12     20.042773   20.242408   20.617681 H          1 MOL1         0.1008
      19    H13     21.572375   20.157205   19.741391 H          1 MOL1         0.1008
      20    H14     20.908707   18.689074   20.482448 H          1 MOL1         0.1008
@<TRIPOS>BOND
    1     1     2    1
    2     1     3    1
    3     1     4    1
    4     1     5    1
    5     5     6    1
    6     5     7    1
    7     5     8    1
    8     8     9    1
    9     8    10    1
   10     8    11    1
   11    11    12    1
   12    11    13    1
   13    11    14    1
   14    14    15    1
   15    14    16    1
   16    14    17    1
   17    17    18    1
   18    17    19    1
   19    17    20    1
@<TRIPOS>SUBSTRUCTURE
       1 MOL1            1 RESIDUE      1      MOL     
@<SCITEGIC>MOL_PROPERTY
VConf Rank
SciTegic.value.IntegerValue
398

@<SCITEGIC>MOL_PROPERTY
Conf_Id
SciTegic.value.IntegerValue
65

@<SCITEGIC>MOL_PROPERTY
Delta U+W
SciTegic.value.DoubleValue
2.949

@<SCITEGIC>MOL_PROPERTY
U+W
SciTegic.value.DoubleValue
-8.829

@<SCITEGIC>MOL_PROPERTY
Grad RMS
SciTegic.value.DoubleValue
0.000000

@<SCITEGIC>MOL_PROPERTY
U
SciTegic.value.DoubleValue
49.435

@<SCITEGIC>MOL_PROPERTY
W
SciTegic.value.DoubleValue
-58.263

@<SCITEGIC>MOL_PROPERTY
W(PB)
SciTegic.value.DoubleValue
-60.125

@<SCITEGIC>MOL_PROPERTY
W(SA)
SciTegic.value.DoubleValue
1.862

@<SCITEGIC>MOL_PROPERTY
Valence
SciTegic.value.DoubleValue
3.797

@<SCITEGIC>MOL_PROPERTY
Coulomb
SciTegic.value.DoubleValue
45.253

@<SCITEGIC>MOL_PROPERTY
VdW
SciTegic.value.DoubleValue
0.384

@<SCITEGIC>MOL_PROPERTY
VdW6
SciTegic.value.DoubleValue
-5.596

@<SCITEGIC>MOL_PROPERTY
VdW12
SciTegic.value.DoubleValue
5.980

@<SCITEGIC>MOL_PROPERTY
Bond
SciTegic.value.DoubleValue
0.198

@<SCITEGIC>MOL_PROPERTY
Angle
SciTegic.value.DoubleValue
1.369

@<SCITEGIC>MOL_PROPERTY
Pdih
SciTegic.value.DoubleValue
2.230

@<SCITEGIC>MOL_PROPERTY
Idih
SciTegic.value.DoubleValue
0.000

@<SCITEGIC>MOL_PROPERTY
Tether
SciTegic.value.DoubleValue
0.000

@<TRIPOS>MOLECULE
guest-s11_confgen4.mol2 : confsearch ligand conformer 399
          20          19           1
SMALL
USER_CHARGES
 
@<TRIPOS>ATOM
       1    N1      19.646018   17.626725   23.504427 N.4        1 MOL1        -0.5919
       2    H1      19.588881   17.354493   24.491497 H          1 MOL1         0.3682
       3    H2      18.980709   18.392236   23.359233 H          1 MOL1         0.3682
       4    H3      19.315517   16.827056   22.955151 H          1 MOL1         0.3682
       5    C1      21.052961   18.035090   23.112883 C.3        1 MOL1         0.0252
       6    H4      21.698238   17.171044   23.293331 H          1 MOL1         0.0971
       7    H5      21.378994   18.845079   23.770774 H          1 MOL1         0.0971
       8    C2      21.192477   18.468548   21.639432 C.3        1 MOL1        -0.1369
       9    H6      22.243891   18.337105   21.351224 H          1 MOL1         0.0997
      10    H7      20.619539   17.787886   20.995809 H          1 MOL1         0.0997
      11    C3      20.801272   19.941383   21.343500 C.3        1 MOL1        -0.1329
      12    H8      21.000316   20.126168   20.278717 H          1 MOL1         0.0997
      13    H9      21.468725   20.622938   21.888894 H          1 MOL1         0.0997
      14    C4      19.321685   20.307351   21.625298 C.3        1 MOL1        -0.1305
      15    H10     18.989618   21.030617   20.867092 H          1 MOL1         0.0997
      16    H11     18.676819   19.427738   21.496105 H          1 MOL1         0.0997
      17    C5      19.109051   20.950192   23.016471 C.3        1 MOL1        -0.2320
      18    H12     19.481558   20.320023   23.831161 H          1 MOL1         0.1008
      19    H13     19.632221   21.913263   23.080563 H          1 MOL1         0.1008
      20    H14     18.042937   21.141284   23.195544 H          1 MOL1         0.1008
@<TRIPOS>BOND
    1     1     2    1
    2     1     3    1
    3     1     4    1
    4     1     5    1
    5     5     6    1
    6     5     7    1
    7     5     8    1
    8     8     9    1
    9     8    10    1
   10     8    11    1
   11    11    12    1
   12    11    13    1
   13    11    14    1
   14    14    15    1
   15    14    16    1
   16    14    17    1
   17    17    18    1
   18    17    19    1
   19    17    20    1
@<TRIPOS>SUBSTRUCTURE
       1 MOL1            1 RESIDUE      1      MOL     
@<SCITEGIC>MOL_PROPERTY
VConf Rank
SciTegic.value.IntegerValue
399

@<SCITEGIC>MOL_PROPERTY
Conf_Id
SciTegic.value.IntegerValue
77

@<SCITEGIC>MOL_PROPERTY
Delta U+W
SciTegic.value.DoubleValue
5.366

@<SCITEGIC>MOL_PROPERTY
U+W
SciTegic.value.DoubleValue
-6.412

@<SCITEGIC>MOL_PROPERTY
Grad RMS
SciTegic.value.DoubleValue
0.000000

@<SCITEGIC>MOL_PROPERTY
U
SciTegic.value.DoubleValue
51.542

@<SCITEGIC>MOL_PROPERTY
W
SciTegic.value.DoubleValue
-57.954

@<SCITEGIC>MOL_PROPERTY
W(PB)
SciTegic.value.DoubleValue
-59.811

@<SCITEGIC>MOL_PROPERTY
W(SA)
SciTegic.value.DoubleValue
1.857

@<SCITEGIC>MOL_PROPERTY
Valence
SciTegic.value.DoubleValue
5.347

@<SCITEGIC>MOL_PROPERTY
Coulomb
SciTegic.value.DoubleValue
45.870

@<SCITEGIC>MOL_PROPERTY
VdW
SciTegic.value.DoubleValue
0.325

@<SCITEGIC>MOL_PROPERTY
VdW6
SciTegic.value.DoubleValue
-6.161

@<SCITEGIC>MOL_PROPERTY
VdW12
SciTegic.value.DoubleValue
6.486

@<SCITEGIC>MOL_PROPERTY
Bond
SciTegic.value.DoubleValue
0.201

@<SCITEGIC>MOL_PROPERTY
Angle
SciTegic.value.DoubleValue
1.484

@<SCITEGIC>MOL_PROPERTY
Pdih
SciTegic.value.DoubleValue
3.662

@<SCITEGIC>MOL_PROPERTY
Idih
SciTegic.value.DoubleValue
0.000

@<SCITEGIC>MOL_PROPERTY
Tether
SciTegic.value.DoubleValue
0.000

@<TRIPOS>MOLECULE
guest-s11_confgen4.mol2 : confsearch ligand conformer 400
          20          19           1
SMALL
USER_CHARGES
 
@<TRIPOS>ATOM
       1    N1      20.459325   20.466937   23.785071 N.4        1 MOL1        -0.5919
       2    H1      19.650681   21.081031   23.924316 H          1 MOL1         0.3682
       3    H2      20.173922   19.520861   24.055648 H          1 MOL1         0.3682
       4    H3      21.181428   20.770043   24.447171 H          1 MOL1         0.3682
       5    C1      20.955592   20.506463   22.352689 C.3        1 MOL1         0.0252
       6    H4      21.853965   19.888260   22.275542 H          1 MOL1         0.0971
       7    H5      21.236930   21.541534   22.140568 H          1 MOL1         0.0971
       8    C2      19.911874   20.045764   21.314990 C.3        1 MOL1        -0.1369
       9    H6      18.928010   20.463545   21.566547 H          1 MOL1         0.0997
      10    H7      20.185279   20.488212   20.347880 H          1 MOL1         0.0997
      11    C3      19.807049   18.509294   21.119713 C.3        1 MOL1        -0.1329
      12    H8      20.758719   18.114590   20.737617 H          1 MOL1         0.0997
      13    H9      19.073607   18.329252   20.321481 H          1 MOL1         0.0997
      14    C4      19.362177   17.707533   22.369428 C.3        1 MOL1        -0.1305
      15    H10     18.719700   18.323657   23.012762 H          1 MOL1         0.0997
      16    H11     18.732886   16.868273   22.040954 H          1 MOL1         0.0997
      17    C5      20.549551   17.122402   23.170418 C.3        1 MOL1        -0.2320
      18    H12     20.192387   16.611661   24.074165 H          1 MOL1         0.1008
      19    H13     21.094989   16.384231   22.567986 H          1 MOL1         0.1008
      20    H14     21.267804   17.890325   23.477012 H          1 MOL1         0.1008
@<TRIPOS>BOND
    1     1     2    1
    2     1     3    1
    3     1     4    1
    4     1     5    1
    5     5     6    1
    6     5     7    1
    7     5     8    1
    8     8     9    1
    9     8    10    1
   10     8    11    1
   11    11    12    1
   12    11    13    1
   13    11    14    1
   14    14    15    1
   15    14    16    1
   16    14    17    1
   17    17    18    1
   18    17    19    1
   19    17    20    1
@<TRIPOS>SUBSTRUCTURE
       1 MOL1            1 RESIDUE      1      MOL     
@<SCITEGIC>MOL_PROPERTY
VConf Rank
SciTegic.value.IntegerValue
400

@<SCITEGIC>MOL_PROPERTY
Conf_Id
SciTegic.value.IntegerValue
67

@<SCITEGIC>MOL_PROPERTY
Delta U+W
SciTegic.value.DoubleValue
5.353

@<SCITEGIC>MOL_PROPERTY
U+W
SciTegic.value.DoubleValue
-6.425

@<SCITEGIC>MOL_PROPERTY
Grad RMS
SciTegic.value.DoubleValue
0.000000

@<SCITEGIC>MOL_PROPERTY
U
SciTegic.value.DoubleValue
51.541

@<SCITEGIC>MOL_PROPERTY
W
SciTegic.value.DoubleValue
-57.966

@<SCITEGIC>MOL_PROPERTY
W(PB)
SciTegic.value.DoubleValue
-59.821

@<SCITEGIC>MOL_PROPERTY
W(SA)
SciTegic.value.DoubleValue
1.855

@<SCITEGIC>MOL_PROPERTY
Valence
SciTegic.value.DoubleValue
5.347

@<SCITEGIC>MOL_PROPERTY
Coulomb
SciTegic.value.DoubleValue
45.870

@<SCITEGIC>MOL_PROPERTY
VdW
SciTegic.value.DoubleValue
0.325

@<SCITEGIC>MOL_PROPERTY
VdW6
SciTegic.value.DoubleValue
-6.161

@<SCITEGIC>MOL_PROPERTY
VdW12
SciTegic.value.DoubleValue
6.486

@<SCITEGIC>MOL_PROPERTY
Bond
SciTegic.value.DoubleValue
0.201

@<SCITEGIC>MOL_PROPERTY
Angle
SciTegic.value.DoubleValue
1.485

@<SCITEGIC>MOL_PROPERTY
Pdih
SciTegic.value.DoubleValue
3.662

@<SCITEGIC>MOL_PROPERTY
Idih
SciTegic.value.DoubleValue
0.000

@<SCITEGIC>MOL_PROPERTY
Tether
SciTegic.value.DoubleValue
0.000

@<TRIPOS>MOLECULE
guest-s11_confgen4.mol2 : confsearch ligand conformer 401
          20          19           1
SMALL
USER_CHARGES
 
@<TRIPOS>ATOM
       1    N1      19.852865   17.579181   19.662964 N.4        1 MOL1        -0.5919
       2    H1      19.021079   18.068268   19.317545 H          1 MOL1         0.3682
       3    H2      20.440349   17.379106   18.846611 H          1 MOL1         0.3682
       4    H3      19.539584   16.675805   20.031955 H          1 MOL1         0.3682
       5    C1      20.595165   18.390539   20.705642 C.3        1 MOL1         0.0252
       6    H4      20.924425   19.321935   20.237019 H          1 MOL1         0.0971
       7    H5      21.481696   17.824968   21.005153 H          1 MOL1         0.0971
       8    C2      19.740554   18.708698   21.945674 C.3        1 MOL1        -0.1369
       9    H6      18.843532   19.262718   21.638295 H          1 MOL1         0.0997
      10    H7      19.398874   17.770910   22.403796 H          1 MOL1         0.0997
      11    C3      20.533168   19.535690   22.982293 C.3        1 MOL1        -0.1329
      12    H8      20.877935   20.470759   22.519075 H          1 MOL1         0.0997
      13    H9      21.432570   18.980710   23.283731 H          1 MOL1         0.0997
      14    C4      19.684777   19.861227   24.232010 C.3        1 MOL1        -0.1305
      15    H10     18.784973   20.418271   23.935189 H          1 MOL1         0.0997
      16    H11     19.339608   18.928446   24.699797 H          1 MOL1         0.0997
      17    C5      20.480684   20.687583   25.264796 C.3        1 MOL1        -0.2320
      18    H12     20.810536   21.643096   24.836535 H          1 MOL1         0.1008
      19    H13     19.861995   20.908684   26.144217 H          1 MOL1         0.1008
      20    H14     21.369423   20.141595   25.607222 H          1 MOL1         0.1008
@<TRIPOS>BOND
    1     1     2    1
    2     1     3    1
    3     1     4    1
    4     1     5    1
    5     5     6    1
    6     5     7    1
    7     5     8    1
    8     8     9    1
    9     8    10    1
   10     8    11    1
   11    11    12    1
   12    11    13    1
   13    11    14    1
   14    14    15    1
   15    14    16    1
   16    14    17    1
   17    17    18    1
   18    17    19    1
   19    17    20    1
@<TRIPOS>SUBSTRUCTURE
       1 MOL1            1 RESIDUE      1      MOL     
@<SCITEGIC>MOL_PROPERTY
VConf Rank
SciTegic.value.IntegerValue
401

@<SCITEGIC>MOL_PROPERTY
Conf_Id
SciTegic.value.IntegerValue
72

@<SCITEGIC>MOL_PROPERTY
Delta U+W
SciTegic.value.DoubleValue
0.000

@<SCITEGIC>MOL_PROPERTY
U+W
SciTegic.value.DoubleValue
-11.778

@<SCITEGIC>MOL_PROPERTY
Grad RMS
SciTegic.value.DoubleValue
0.000000

@<SCITEGIC>MOL_PROPERTY
U
SciTegic.value.DoubleValue
45.772

@<SCITEGIC>MOL_PROPERTY
W
SciTegic.value.DoubleValue
-57.550

@<SCITEGIC>MOL_PROPERTY
W(PB)
SciTegic.value.DoubleValue
-59.511

@<SCITEGIC>MOL_PROPERTY
W(SA)
SciTegic.value.DoubleValue
1.961

@<SCITEGIC>MOL_PROPERTY
Valence
SciTegic.value.DoubleValue
1.299

@<SCITEGIC>MOL_PROPERTY
Coulomb
SciTegic.value.DoubleValue
44.177

@<SCITEGIC>MOL_PROPERTY
VdW
SciTegic.value.DoubleValue
0.297

@<SCITEGIC>MOL_PROPERTY
VdW6
SciTegic.value.DoubleValue
-3.490

@<SCITEGIC>MOL_PROPERTY
VdW12
SciTegic.value.DoubleValue
3.786

@<SCITEGIC>MOL_PROPERTY
Bond
SciTegic.value.DoubleValue
0.096

@<SCITEGIC>MOL_PROPERTY
Angle
SciTegic.value.DoubleValue
0.381

@<SCITEGIC>MOL_PROPERTY
Pdih
SciTegic.value.DoubleValue
0.822

@<SCITEGIC>MOL_PROPERTY
Idih
SciTegic.value.DoubleValue
0.000

@<SCITEGIC>MOL_PROPERTY
Tether
SciTegic.value.DoubleValue
0.000

@<TRIPOS>MOLECULE
guest-s11_confgen4.mol2 : confsearch ligand conformer 402
          20          19           1
SMALL
USER_CHARGES
 
@<TRIPOS>ATOM
       1    N1      22.165496   19.414638   20.312575 N.4        1 MOL1        -0.5919
       2    H1      21.437951   19.517620   19.598147 H          1 MOL1         0.3682
       3    H2      22.497377   20.356594   20.542657 H          1 MOL1         0.3682
       4    H3      22.949242   18.923320   19.869935 H          1 MOL1         0.3682
       5    C1      21.658187   18.678154   21.536015 C.3        1 MOL1         0.0252
       6    H4      22.489985   18.578153   22.238585 H          1 MOL1         0.0971
       7    H5      21.350500   17.676523   21.223653 H          1 MOL1         0.0971
       8    C2      20.480485   19.389831   22.225799 C.3        1 MOL1        -0.1369
       9    H6      20.788972   20.400782   22.523497 H          1 MOL1         0.0997
      10    H7      19.658870   19.500509   21.506934 H          1 MOL1         0.0997
      11    C3      19.997462   18.605534   23.468657 C.3        1 MOL1        -0.1329
      12    H8      20.851094   18.438698   24.140385 H          1 MOL1         0.0997
      13    H9      19.645369   17.610037   23.164350 H          1 MOL1         0.0997
      14    C4      18.881619   19.329368   24.260888 C.3        1 MOL1        -0.1305
      15    H10     18.673230   18.759401   25.177213 H          1 MOL1         0.0997
      16    H11     19.237986   20.316254   24.587897 H          1 MOL1         0.0997
      17    C5      17.566655   19.489371   23.464145 C.3        1 MOL1        -0.2320
      18    H12     17.203778   18.518934   23.101396 H          1 MOL1         0.1008
      19    H13     16.783541   19.924013   24.098786 H          1 MOL1         0.1008
      20    H14     17.696229   20.153162   22.600423 H          1 MOL1         0.1008
@<TRIPOS>BOND
    1     1     2    1
    2     1     3    1
    3     1     4    1
    4     1     5    1
    5     5     6    1
    6     5     7    1
    7     5     8    1
    8     8     9    1
    9     8    10    1
   10     8    11    1
   11    11    12    1
   12    11    13    1
   13    11    14    1
   14    14    15    1
   15    14    16    1
   16    14    17    1
   17    17    18    1
   18    17    19    1
   19    17    20    1
@<TRIPOS>SUBSTRUCTURE
       1 MOL1            1 RESIDUE      1      MOL     
@<SCITEGIC>MOL_PROPERTY
VConf Rank
SciTegic.value.IntegerValue
402

@<SCITEGIC>MOL_PROPERTY
Conf_Id
SciTegic.value.IntegerValue
42

@<SCITEGIC>MOL_PROPERTY
Delta U+W
SciTegic.value.DoubleValue
0.508

@<SCITEGIC>MOL_PROPERTY
U+W
SciTegic.value.DoubleValue
-11.270

@<SCITEGIC>MOL_PROPERTY
Grad RMS
SciTegic.value.DoubleValue
0.000000

@<SCITEGIC>MOL_PROPERTY
U
SciTegic.value.DoubleValue
46.486

@<SCITEGIC>MOL_PROPERTY
W
SciTegic.value.DoubleValue
-57.756

@<SCITEGIC>MOL_PROPERTY
W(PB)
SciTegic.value.DoubleValue
-59.705

@<SCITEGIC>MOL_PROPERTY
W(SA)
SciTegic.value.DoubleValue
1.949

@<SCITEGIC>MOL_PROPERTY
Valence
SciTegic.value.DoubleValue
1.806

@<SCITEGIC>MOL_PROPERTY
Coulomb
SciTegic.value.DoubleValue
44.248

@<SCITEGIC>MOL_PROPERTY
VdW
SciTegic.value.DoubleValue
0.433

@<SCITEGIC>MOL_PROPERTY
VdW6
SciTegic.value.DoubleValue
-4.089

@<SCITEGIC>MOL_PROPERTY
VdW12
SciTegic.value.DoubleValue
4.522

@<SCITEGIC>MOL_PROPERTY
Bond
SciTegic.value.DoubleValue
0.131

@<SCITEGIC>MOL_PROPERTY
Angle
SciTegic.value.DoubleValue
0.628

@<SCITEGIC>MOL_PROPERTY
Pdih
SciTegic.value.DoubleValue
1.047

@<SCITEGIC>MOL_PROPERTY
Idih
SciTegic.value.DoubleValue
0.000

@<SCITEGIC>MOL_PROPERTY
Tether
SciTegic.value.DoubleValue
0.000

@<TRIPOS>MOLECULE
guest-s11_confgen4.mol2 : confsearch ligand conformer 403
          20          19           1
SMALL
USER_CHARGES
 
@<TRIPOS>ATOM
       1    N1      19.088122   16.926424   20.653671 N.4        1 MOL1        -0.5919
       2    H1      18.166001   16.824013   21.089067 H          1 MOL1         0.3682
       3    H2      18.986804   17.600462   19.888334 H          1 MOL1         0.3682
       4    H3      19.316639   16.022981   20.225708 H          1 MOL1         0.3682
       5    C1      20.141881   17.358355   21.653476 C.3        1 MOL1         0.0252
       6    H4      21.099857   17.417896   21.129793 H          1 MOL1         0.0971
       7    H5      20.217550   16.582539   22.420208 H          1 MOL1         0.0971
       8    C2      19.829024   18.712150   22.315768 C.3        1 MOL1        -0.1369
       9    H6      19.737759   19.479044   21.536274 H          1 MOL1         0.0997
      10    H7      18.859002   18.652664   22.826973 H          1 MOL1         0.0997
      11    C3      20.927883   19.111749   23.328667 C.3        1 MOL1        -0.1329
      12    H8      21.890283   19.216396   22.808645 H          1 MOL1         0.0997
      13    H9      21.057160   18.297945   24.055822 H          1 MOL1         0.0997
      14    C4      20.612074   20.416099   24.100421 C.3        1 MOL1        -0.1305
      15    H10     19.661682   20.307255   24.641517 H          1 MOL1         0.0997
      16    H11     21.385382   20.568675   24.866355 H          1 MOL1         0.0997
      17    C5      20.554293   21.667637   23.194968 C.3        1 MOL1        -0.2320
      18    H12     19.716984   21.616149   22.488084 H          1 MOL1         0.1008
      19    H13     20.419057   22.573489   23.800025 H          1 MOL1         0.1008
      20    H14     21.482904   21.783491   22.621143 H          1 MOL1         0.1008
@<TRIPOS>BOND
    1     1     2    1
    2     1     3    1
    3     1     4    1
    4     1     5    1
    5     5     6    1
    6     5     7    1
    7     5     8    1
    8     8     9    1
    9     8    10    1
   10     8    11    1
   11    11    12    1
   12    11    13    1
   13    11    14    1
   14    14    15    1
   15    14    16    1
   16    14    17    1
   17    17    18    1
   18    17    19    1
   19    17    20    1
@<TRIPOS>SUBSTRUCTURE
       1 MOL1            1 RESIDUE      1      MOL     
@<SCITEGIC>MOL_PROPERTY
VConf Rank
SciTegic.value.IntegerValue
403

@<SCITEGIC>MOL_PROPERTY
Conf_Id
SciTegic.value.IntegerValue
41

@<SCITEGIC>MOL_PROPERTY
Delta U+W
SciTegic.value.DoubleValue
0.515

@<SCITEGIC>MOL_PROPERTY
U+W
SciTegic.value.DoubleValue
-11.263

@<SCITEGIC>MOL_PROPERTY
Grad RMS
SciTegic.value.DoubleValue
0.000000

@<SCITEGIC>MOL_PROPERTY
U
SciTegic.value.DoubleValue
46.486

@<SCITEGIC>MOL_PROPERTY
W
SciTegic.value.DoubleValue
-57.749

@<SCITEGIC>MOL_PROPERTY
W(PB)
SciTegic.value.DoubleValue
-59.685

@<SCITEGIC>MOL_PROPERTY
W(SA)
SciTegic.value.DoubleValue
1.936

@<SCITEGIC>MOL_PROPERTY
Valence
SciTegic.value.DoubleValue
1.806

@<SCITEGIC>MOL_PROPERTY
Coulomb
SciTegic.value.DoubleValue
44.248

@<SCITEGIC>MOL_PROPERTY
VdW
SciTegic.value.DoubleValue
0.433

@<SCITEGIC>MOL_PROPERTY
VdW6
SciTegic.value.DoubleValue
-4.089

@<SCITEGIC>MOL_PROPERTY
VdW12
SciTegic.value.DoubleValue
4.522

@<SCITEGIC>MOL_PROPERTY
Bond
SciTegic.value.DoubleValue
0.131

@<SCITEGIC>MOL_PROPERTY
Angle
SciTegic.value.DoubleValue
0.628

@<SCITEGIC>MOL_PROPERTY
Pdih
SciTegic.value.DoubleValue
1.047

@<SCITEGIC>MOL_PROPERTY
Idih
SciTegic.value.DoubleValue
0.000

@<SCITEGIC>MOL_PROPERTY
Tether
SciTegic.value.DoubleValue
0.000

@<TRIPOS>MOLECULE
guest-s11_confgen4.mol2 : confsearch ligand conformer 404
          20          19           1
SMALL
USER_CHARGES
 
@<TRIPOS>ATOM
       1    N1      17.683506   19.641555   23.612400 N.4        1 MOL1        -0.5919
       2    H1      16.847396   20.222969   23.732308 H          1 MOL1         0.3682
       3    H2      17.457102   18.936187   22.905196 H          1 MOL1         0.3682
       4    H3      17.831313   19.146572   24.497464 H          1 MOL1         0.3682
       5    C1      18.892316   20.468729   23.219049 C.3        1 MOL1         0.0252
       6    H4      19.043557   21.222984   23.996110 H          1 MOL1         0.0971
       7    H5      18.660736   20.986043   22.284064 H          1 MOL1         0.0971
       8    C2      20.184490   19.645561   23.050079 C.3        1 MOL1        -0.1369
       9    H6      21.012594   20.345897   22.884605 H          1 MOL1         0.0997
      10    H7      20.404882   19.113518   23.984984 H          1 MOL1         0.0997
      11    C3      20.104741   18.641283   21.872717 C.3        1 MOL1        -0.1329
      12    H8      19.906693   19.183006   20.937419 H          1 MOL1         0.0997
      13    H9      19.252258   17.966273   22.025171 H          1 MOL1         0.0997
      14    C4      21.380416   17.779158   21.710316 C.3        1 MOL1        -0.1305
      15    H10     21.575222   17.224572   22.638945 H          1 MOL1         0.0997
      16    H11     21.197640   17.022791   20.934145 H          1 MOL1         0.0997
      17    C5      22.632617   18.597703   21.320779 C.3        1 MOL1        -0.2320
      18    H12     22.932076   19.284359   22.122089 H          1 MOL1         0.1008
      19    H13     23.481914   17.930289   21.125328 H          1 MOL1         0.1008
      20    H14     22.453064   19.186300   20.411759 H          1 MOL1         0.1008
@<TRIPOS>BOND
    1     1     2    1
    2     1     3    1
    3     1     4    1
    4     1     5    1
    5     5     6    1
    6     5     7    1
    7     5     8    1
    8     8     9    1
    9     8    10    1
   10     8    11    1
   11    11    12    1
   12    11    13    1
   13    11    14    1
   14    14    15    1
   15    14    16    1
   16    14    17    1
   17    17    18    1
   18    17    19    1
   19    17    20    1
@<TRIPOS>SUBSTRUCTURE
       1 MOL1            1 RESIDUE      1      MOL     
@<SCITEGIC>MOL_PROPERTY
VConf Rank
SciTegic.value.IntegerValue
404

@<SCITEGIC>MOL_PROPERTY
Conf_Id
SciTegic.value.IntegerValue
33

@<SCITEGIC>MOL_PROPERTY
Delta U+W
SciTegic.value.DoubleValue
0.703

@<SCITEGIC>MOL_PROPERTY
U+W
SciTegic.value.DoubleValue
-11.075

@<SCITEGIC>MOL_PROPERTY
Grad RMS
SciTegic.value.DoubleValue
0.000000

@<SCITEGIC>MOL_PROPERTY
U
SciTegic.value.DoubleValue
47.080

@<SCITEGIC>MOL_PROPERTY
W
SciTegic.value.DoubleValue
-58.154

@<SCITEGIC>MOL_PROPERTY
W(PB)
SciTegic.value.DoubleValue
-60.053

@<SCITEGIC>MOL_PROPERTY
W(SA)
SciTegic.value.DoubleValue
1.899

@<SCITEGIC>MOL_PROPERTY
Valence
SciTegic.value.DoubleValue
1.943

@<SCITEGIC>MOL_PROPERTY
Coulomb
SciTegic.value.DoubleValue
44.572

@<SCITEGIC>MOL_PROPERTY
VdW
SciTegic.value.DoubleValue
0.565

@<SCITEGIC>MOL_PROPERTY
VdW6
SciTegic.value.DoubleValue
-4.575

@<SCITEGIC>MOL_PROPERTY
VdW12
SciTegic.value.DoubleValue
5.139

@<SCITEGIC>MOL_PROPERTY
Bond
SciTegic.value.DoubleValue
0.158

@<SCITEGIC>MOL_PROPERTY
Angle
SciTegic.value.DoubleValue
0.700

@<SCITEGIC>MOL_PROPERTY
Pdih
SciTegic.value.DoubleValue
1.085

@<SCITEGIC>MOL_PROPERTY
Idih
SciTegic.value.DoubleValue
0.000

@<SCITEGIC>MOL_PROPERTY
Tether
SciTegic.value.DoubleValue
0.000

@<TRIPOS>MOLECULE
guest-s11_confgen4.mol2 : confsearch ligand conformer 405
          20          19           1
SMALL
USER_CHARGES
 
@<TRIPOS>ATOM
       1    N1      22.012662   20.684003   23.784129 N.4        1 MOL1        -0.5919
       2    H1      22.383078   21.594311   24.076759 H          1 MOL1         0.3682
       3    H2      22.280300   20.007702   24.506057 H          1 MOL1         0.3682
       4    H3      22.507367   20.422755   22.926252 H          1 MOL1         0.3682
       5    C1      20.510508   20.727220   23.579611 C.3        1 MOL1         0.0252
       6    H4      20.292559   21.480702   22.817898 H          1 MOL1         0.0971
       7    H5      20.058316   21.054149   24.519952 H          1 MOL1         0.0971
       8    C2      19.897600   19.375797   23.162646 C.3        1 MOL1        -0.1369
       9    H6      20.132938   18.617212   23.920838 H          1 MOL1         0.0997
      10    H7      18.806124   19.486526   23.157443 H          1 MOL1         0.0997
      11    C3      20.382708   18.903143   21.768951 C.3        1 MOL1        -0.1329
      12    H8      21.478212   18.829124   21.768978 H          1 MOL1         0.0997
      13    H9      20.123803   19.656644   21.012199 H          1 MOL1         0.0997
      14    C4      19.805809   17.529278   21.348643 C.3        1 MOL1        -0.1305
      15    H10     20.285119   17.218610   20.409660 H          1 MOL1         0.0997
      16    H11     20.073752   16.769073   22.095744 H          1 MOL1         0.0997
      17    C5      18.273568   17.540207   21.143985 C.3        1 MOL1        -0.2320
      18    H12     17.976430   18.313907   20.424191 H          1 MOL1         0.1008
      19    H13     17.931319   16.572235   20.755600 H          1 MOL1         0.1008
      20    H14     17.741281   17.723137   22.085515 H          1 MOL1         0.1008
@<TRIPOS>BOND
    1     1     2    1
    2     1     3    1
    3     1     4    1
    4     1     5    1
    5     5     6    1
    6     5     7    1
    7     5     8    1
    8     8     9    1
    9     8    10    1
   10     8    11    1
   11    11    12    1
   12    11    13    1
   13    11    14    1
   14    14    15    1
   15    14    16    1
   16    14    17    1
   17    17    18    1
   18    17    19    1
   19    17    20    1
@<TRIPOS>SUBSTRUCTURE
       1 MOL1            1 RESIDUE      1      MOL     
@<SCITEGIC>MOL_PROPERTY
VConf Rank
SciTegic.value.IntegerValue
405

@<SCITEGIC>MOL_PROPERTY
Conf_Id
SciTegic.value.IntegerValue
24

@<SCITEGIC>MOL_PROPERTY
Delta U+W
SciTegic.value.DoubleValue
0.847

@<SCITEGIC>MOL_PROPERTY
U+W
SciTegic.value.DoubleValue
-10.931

@<SCITEGIC>MOL_PROPERTY
Grad RMS
SciTegic.value.DoubleValue
0.000000

@<SCITEGIC>MOL_PROPERTY
U
SciTegic.value.DoubleValue
47.080

@<SCITEGIC>MOL_PROPERTY
W
SciTegic.value.DoubleValue
-58.011

@<SCITEGIC>MOL_PROPERTY
W(PB)
SciTegic.value.DoubleValue
-59.914

@<SCITEGIC>MOL_PROPERTY
W(SA)
SciTegic.value.DoubleValue
1.903

@<SCITEGIC>MOL_PROPERTY
Valence
SciTegic.value.DoubleValue
1.943

@<SCITEGIC>MOL_PROPERTY
Coulomb
SciTegic.value.DoubleValue
44.572

@<SCITEGIC>MOL_PROPERTY
VdW
SciTegic.value.DoubleValue
0.565

@<SCITEGIC>MOL_PROPERTY
VdW6
SciTegic.value.DoubleValue
-4.575

@<SCITEGIC>MOL_PROPERTY
VdW12
SciTegic.value.DoubleValue
5.140

@<SCITEGIC>MOL_PROPERTY
Bond
SciTegic.value.DoubleValue
0.158

@<SCITEGIC>MOL_PROPERTY
Angle
SciTegic.value.DoubleValue
0.700

@<SCITEGIC>MOL_PROPERTY
Pdih
SciTegic.value.DoubleValue
1.085

@<SCITEGIC>MOL_PROPERTY
Idih
SciTegic.value.DoubleValue
0.000

@<SCITEGIC>MOL_PROPERTY
Tether
SciTegic.value.DoubleValue
0.000

@<TRIPOS>MOLECULE
guest-s11_confgen4.mol2 : confsearch ligand conformer 406
          20          19           1
SMALL
USER_CHARGES
 
@<TRIPOS>ATOM
       1    N1      17.596070   18.734099   23.426515 N.4        1 MOL1        -0.5919
       2    H1      16.737854   19.232305   23.168163 H          1 MOL1         0.3682
       3    H2      17.564467   17.823964   22.956540 H          1 MOL1         0.3682
       4    H3      17.543380   18.554786   24.434176 H          1 MOL1         0.3682
       5    C1      18.837157   19.520510   23.055583 C.3        1 MOL1         0.0252
       6    H4      18.790827   20.486030   23.566466 H          1 MOL1         0.0971
       7    H5      18.811155   19.700119   21.977600 H          1 MOL1         0.0971
       8    C2      20.145411   18.798771   23.430001 C.3        1 MOL1        -0.1369
       9    H6      20.142537   18.586307   24.507317 H          1 MOL1         0.0997
      10    H7      20.188703   17.825428   22.924843 H          1 MOL1         0.0997
      11    C3      21.407440   19.629736   23.088274 C.3        1 MOL1        -0.1329
      12    H8      22.299291   19.063831   23.390956 H          1 MOL1         0.0997
      13    H9      21.408449   20.543739   23.698267 H          1 MOL1         0.0997
      14    C4      21.541206   20.026269   21.595595 C.3        1 MOL1        -0.1305
      15    H10     20.710628   20.682171   21.301131 H          1 MOL1         0.0997
      16    H11     22.455049   20.624319   21.472675 H          1 MOL1         0.0997
      17    C5      21.608616   18.812526   20.640978 C.3        1 MOL1        -0.2320
      18    H12     21.796224   19.143254   19.611257 H          1 MOL1         0.1008
      19    H13     22.419159   18.129725   20.926948 H          1 MOL1         0.1008
      20    H14     20.667660   18.248402   20.639628 H          1 MOL1         0.1008
@<TRIPOS>BOND
    1     1     2    1
    2     1     3    1
    3     1     4    1
    4     1     5    1
    5     5     6    1
    6     5     7    1
    7     5     8    1
    8     8     9    1
    9     8    10    1
   10     8    11    1
   11    11    12    1
   12    11    13    1
   13    11    14    1
   14    14    15    1
   15    14    16    1
   16    14    17    1
   17    17    18    1
   18    17    19    1
   19    17    20    1
@<TRIPOS>SUBSTRUCTURE
       1 MOL1            1 RESIDUE      1      MOL     
@<SCITEGIC>MOL_PROPERTY
VConf Rank
SciTegic.value.IntegerValue
406

@<SCITEGIC>MOL_PROPERTY
Conf_Id
SciTegic.value.IntegerValue
64

@<SCITEGIC>MOL_PROPERTY
Delta U+W
SciTegic.value.DoubleValue
0.707

@<SCITEGIC>MOL_PROPERTY
U+W
SciTegic.value.DoubleValue
-11.070

@<SCITEGIC>MOL_PROPERTY
Grad RMS
SciTegic.value.DoubleValue
0.000000

@<SCITEGIC>MOL_PROPERTY
U
SciTegic.value.DoubleValue
47.077

@<SCITEGIC>MOL_PROPERTY
W
SciTegic.value.DoubleValue
-58.148

@<SCITEGIC>MOL_PROPERTY
W(PB)
SciTegic.value.DoubleValue
-60.054

@<SCITEGIC>MOL_PROPERTY
W(SA)
SciTegic.value.DoubleValue
1.906

@<SCITEGIC>MOL_PROPERTY
Valence
SciTegic.value.DoubleValue
2.039

@<SCITEGIC>MOL_PROPERTY
Coulomb
SciTegic.value.DoubleValue
44.655

@<SCITEGIC>MOL_PROPERTY
VdW
SciTegic.value.DoubleValue
0.383

@<SCITEGIC>MOL_PROPERTY
VdW6
SciTegic.value.DoubleValue
-4.912

@<SCITEGIC>MOL_PROPERTY
VdW12
SciTegic.value.DoubleValue
5.295

@<SCITEGIC>MOL_PROPERTY
Bond
SciTegic.value.DoubleValue
0.159

@<SCITEGIC>MOL_PROPERTY
Angle
SciTegic.value.DoubleValue
0.856

@<SCITEGIC>MOL_PROPERTY
Pdih
SciTegic.value.DoubleValue
1.024

@<SCITEGIC>MOL_PROPERTY
Idih
SciTegic.value.DoubleValue
0.000

@<SCITEGIC>MOL_PROPERTY
Tether
SciTegic.value.DoubleValue
0.000

@<TRIPOS>MOLECULE
guest-s11_confgen4.mol2 : confsearch ligand conformer 407
          20          19           1
SMALL
USER_CHARGES
 
@<TRIPOS>ATOM
       1    N1      22.920959   19.203089   22.839101 N.4        1 MOL1        -0.5919
       2    H1      23.224294   19.902408   23.524117 H          1 MOL1         0.3682
       3    H2      22.933813   18.293606   23.311223 H          1 MOL1         0.3682
       4    H3      23.640965   19.169880   22.109733 H          1 MOL1         0.3682
       5    C1      21.554984   19.525609   22.267769 C.3        1 MOL1         0.0252
       6    H4      21.311335   18.759386   21.527145 H          1 MOL1         0.0971
       7    H5      21.621471   20.489663   21.756341 H          1 MOL1         0.0971
       8    C2      20.449167   19.582606   23.338535 C.3        1 MOL1        -0.1369
       9    H6      20.387782   18.618228   23.858788 H          1 MOL1         0.0997
      10    H7      20.723900   20.325434   24.099119 H          1 MOL1         0.0997
      11    C3      19.065205   19.957154   22.751713 C.3        1 MOL1        -0.1329
      12    H8      19.114065   20.977377   22.346433 H          1 MOL1         0.0997
      13    H9      18.329832   19.991263   23.567388 H          1 MOL1         0.0997
      14    C4      18.548754   19.004435   21.643188 C.3        1 MOL1        -0.1305
      15    H10     17.575908   19.373619   21.289412 H          1 MOL1         0.0997
      16    H11     19.217667   19.037294   20.772413 H          1 MOL1         0.0997
      17    C5      18.383848   17.542499   22.117062 C.3        1 MOL1        -0.2320
      18    H12     17.735010   17.484552   23.000594 H          1 MOL1         0.1008
      19    H13     17.929651   16.931066   21.326644 H          1 MOL1         0.1008
      20    H14     19.350604   17.089463   22.369603 H          1 MOL1         0.1008
@<TRIPOS>BOND
    1     1     2    1
    2     1     3    1
    3     1     4    1
    4     1     5    1
    5     5     6    1
    6     5     7    1
    7     5     8    1
    8     8     9    1
    9     8    10    1
   10     8    11    1
   11    11    12    1
   12    11    13    1
   13    11    14    1
   14    14    15    1
   15    14    16    1
   16    14    17    1
   17    17    18    1
   18    17    19    1
   19    17    20    1
@<TRIPOS>SUBSTRUCTURE
       1 MOL1            1 RESIDUE      1      MOL     
@<SCITEGIC>MOL_PROPERTY
VConf Rank
SciTegic.value.IntegerValue
407

@<SCITEGIC>MOL_PROPERTY
Conf_Id
SciTegic.value.IntegerValue
22

@<SCITEGIC>MOL_PROPERTY
Delta U+W
SciTegic.value.DoubleValue
0.731

@<SCITEGIC>MOL_PROPERTY
U+W
SciTegic.value.DoubleValue
-11.047

@<SCITEGIC>MOL_PROPERTY
Grad RMS
SciTegic.value.DoubleValue
0.000000

@<SCITEGIC>MOL_PROPERTY
U
SciTegic.value.DoubleValue
47.078

@<SCITEGIC>MOL_PROPERTY
W
SciTegic.value.DoubleValue
-58.125

@<SCITEGIC>MOL_PROPERTY
W(PB)
SciTegic.value.DoubleValue
-60.031

@<SCITEGIC>MOL_PROPERTY
W(SA)
SciTegic.value.DoubleValue
1.906

@<SCITEGIC>MOL_PROPERTY
Valence
SciTegic.value.DoubleValue
2.039

@<SCITEGIC>MOL_PROPERTY
Coulomb
SciTegic.value.DoubleValue
44.655

@<SCITEGIC>MOL_PROPERTY
VdW
SciTegic.value.DoubleValue
0.383

@<SCITEGIC>MOL_PROPERTY
VdW6
SciTegic.value.DoubleValue
-4.913

@<SCITEGIC>MOL_PROPERTY
VdW12
SciTegic.value.DoubleValue
5.296

@<SCITEGIC>MOL_PROPERTY
Bond
SciTegic.value.DoubleValue
0.159

@<SCITEGIC>MOL_PROPERTY
Angle
SciTegic.value.DoubleValue
0.856

@<SCITEGIC>MOL_PROPERTY
Pdih
SciTegic.value.DoubleValue
1.024

@<SCITEGIC>MOL_PROPERTY
Idih
SciTegic.value.DoubleValue
0.000

@<SCITEGIC>MOL_PROPERTY
Tether
SciTegic.value.DoubleValue
0.000

@<TRIPOS>MOLECULE
guest-s11_confgen4.mol2 : confsearch ligand conformer 408
          20          19           1
SMALL
USER_CHARGES
 
@<TRIPOS>ATOM
       1    N1      21.181770   21.596235   21.594139 N.4        1 MOL1        -0.5919
       2    H1      20.405270   22.238566   21.780671 H          1 MOL1         0.3682
       3    H2      21.982457   21.924328   22.143290 H          1 MOL1         0.3682
       4    H3      21.432003   21.711057   20.606368 H          1 MOL1         0.3682
       5    C1      20.820711   20.161140   21.920861 C.3        1 MOL1         0.0252
       6    H4      21.679590   19.531416   21.673533 H          1 MOL1         0.0971
       7    H5      19.983884   19.875555   21.279435 H          1 MOL1         0.0971
       8    C2      20.434379   19.956341   23.396489 C.3        1 MOL1        -0.1369
       9    H6      21.235862   20.358569   24.030334 H          1 MOL1         0.0997
      10    H7      19.535074   20.543994   23.623865 H          1 MOL1         0.0997
      11    C3      20.199281   18.474428   23.784528 C.3        1 MOL1        -0.1329
      12    H8      20.022395   18.441542   24.868586 H          1 MOL1         0.0997
      13    H9      21.113523   17.888849   23.615391 H          1 MOL1         0.0997
      14    C4      18.993086   17.798738   23.081870 C.3        1 MOL1        -0.1305
      15    H10     18.606752   17.010020   23.742759 H          1 MOL1         0.0997
      16    H11     18.171434   18.518115   22.958886 H          1 MOL1         0.0997
      17    C5      19.343379   17.147030   21.723412 C.3        1 MOL1        -0.2320
      18    H12     19.651972   17.884783   20.975505 H          1 MOL1         0.1008
      19    H13     20.154079   16.415390   21.835090 H          1 MOL1         0.1008
      20    H14     18.471706   16.616516   21.318783 H          1 MOL1         0.1008
@<TRIPOS>BOND
    1     1     2    1
    2     1     3    1
    3     1     4    1
    4     1     5    1
    5     5     6    1
    6     5     7    1
    7     5     8    1
    8     8     9    1
    9     8    10    1
   10     8    11    1
   11    11    12    1
   12    11    13    1
   13    11    14    1
   14    14    15    1
   15    14    16    1
   16    14    17    1
   17    17    18    1
   18    17    19    1
   19    17    20    1
@<TRIPOS>SUBSTRUCTURE
       1 MOL1            1 RESIDUE      1      MOL     
@<SCITEGIC>MOL_PROPERTY
VConf Rank
SciTegic.value.IntegerValue
408

@<SCITEGIC>MOL_PROPERTY
Conf_Id
SciTegic.value.IntegerValue
61

@<SCITEGIC>MOL_PROPERTY
Delta U+W
SciTegic.value.DoubleValue
2.669

@<SCITEGIC>MOL_PROPERTY
U+W
SciTegic.value.DoubleValue
-9.108

@<SCITEGIC>MOL_PROPERTY
Grad RMS
SciTegic.value.DoubleValue
0.000000

@<SCITEGIC>MOL_PROPERTY
U
SciTegic.value.DoubleValue
48.916

@<SCITEGIC>MOL_PROPERTY
W
SciTegic.value.DoubleValue
-58.025

@<SCITEGIC>MOL_PROPERTY
W(PB)
SciTegic.value.DoubleValue
-59.935

@<SCITEGIC>MOL_PROPERTY
W(SA)
SciTegic.value.DoubleValue
1.911

@<SCITEGIC>MOL_PROPERTY
Valence
SciTegic.value.DoubleValue
3.785

@<SCITEGIC>MOL_PROPERTY
Coulomb
SciTegic.value.DoubleValue
44.716

@<SCITEGIC>MOL_PROPERTY
VdW
SciTegic.value.DoubleValue
0.415

@<SCITEGIC>MOL_PROPERTY
VdW6
SciTegic.value.DoubleValue
-4.836

@<SCITEGIC>MOL_PROPERTY
VdW12
SciTegic.value.DoubleValue
5.251

@<SCITEGIC>MOL_PROPERTY
Bond
SciTegic.value.DoubleValue
0.175

@<SCITEGIC>MOL_PROPERTY
Angle
SciTegic.value.DoubleValue
1.195

@<SCITEGIC>MOL_PROPERTY
Pdih
SciTegic.value.DoubleValue
2.415

@<SCITEGIC>MOL_PROPERTY
Idih
SciTegic.value.DoubleValue
0.000

@<SCITEGIC>MOL_PROPERTY
Tether
SciTegic.value.DoubleValue
0.000

@<TRIPOS>MOLECULE
guest-s11_confgen4.mol2 : confsearch ligand conformer 409
          20          19           1
SMALL
USER_CHARGES
 
@<TRIPOS>ATOM
       1    N1      18.443038   18.913668   23.969004 N.4        1 MOL1        -0.5919
       2    H1      18.183354   18.573403   24.900898 H          1 MOL1         0.3682
       3    H2      17.589029   19.283468   23.539795 H          1 MOL1         0.3682
       4    H3      18.728390   18.098562   23.420186 H          1 MOL1         0.3682
       5    C1      19.537090   19.961900   24.038507 C.3        1 MOL1         0.0252
       6    H4      20.399512   19.532138   24.555100 H          1 MOL1         0.0971
       7    H5      19.152254   20.783098   24.649322 H          1 MOL1         0.0971
       8    C2      19.972255   20.519423   22.666911 C.3        1 MOL1        -0.1369
       9    H6      19.090941   20.701497   22.037666 H          1 MOL1         0.0997
      10    H7      20.428955   21.503553   22.836571 H          1 MOL1         0.0997
      11    C3      21.003484   19.641758   21.911900 C.3        1 MOL1        -0.1329
      12    H8      21.902357   19.517998   22.531719 H          1 MOL1         0.0997
      13    H9      21.324692   20.187984   21.014157 H          1 MOL1         0.0997
      14    C4      20.474190   18.251723   21.487682 C.3        1 MOL1        -0.1305
      15    H10     20.288935   17.633071   22.374701 H          1 MOL1         0.0997
      16    H11     19.516971   18.361598   20.958909 H          1 MOL1         0.0997
      17    C5      21.478716   17.515015   20.575976 C.3        1 MOL1        -0.2320
      18    H12     21.092735   16.527370   20.292025 H          1 MOL1         0.1008
      19    H13     21.664723   18.080735   19.653705 H          1 MOL1         0.1008
      20    H14     22.439675   17.367070   21.085818 H          1 MOL1         0.1008
@<TRIPOS>BOND
    1     1     2    1
    2     1     3    1
    3     1     4    1
    4     1     5    1
    5     5     6    1
    6     5     7    1
    7     5     8    1
    8     8     9    1
    9     8    10    1
   10     8    11    1
   11    11    12    1
   12    11    13    1
   13    11    14    1
   14    14    15    1
   15    14    16    1
   16    14    17    1
   17    17    18    1
   18    17    19    1
   19    17    20    1
@<TRIPOS>SUBSTRUCTURE
       1 MOL1            1 RESIDUE      1      MOL     
@<SCITEGIC>MOL_PROPERTY
VConf Rank
SciTegic.value.IntegerValue
409

@<SCITEGIC>MOL_PROPERTY
Conf_Id
SciTegic.value.IntegerValue
69

@<SCITEGIC>MOL_PROPERTY
Delta U+W
SciTegic.value.DoubleValue
2.811

@<SCITEGIC>MOL_PROPERTY
U+W
SciTegic.value.DoubleValue
-8.967

@<SCITEGIC>MOL_PROPERTY
Grad RMS
SciTegic.value.DoubleValue
0.000000

@<SCITEGIC>MOL_PROPERTY
U
SciTegic.value.DoubleValue
49.216

@<SCITEGIC>MOL_PROPERTY
W
SciTegic.value.DoubleValue
-58.183

@<SCITEGIC>MOL_PROPERTY
W(PB)
SciTegic.value.DoubleValue
-60.064

@<SCITEGIC>MOL_PROPERTY
W(SA)
SciTegic.value.DoubleValue
1.881

@<SCITEGIC>MOL_PROPERTY
Valence
SciTegic.value.DoubleValue
2.929

@<SCITEGIC>MOL_PROPERTY
Coulomb
SciTegic.value.DoubleValue
46.006

@<SCITEGIC>MOL_PROPERTY
VdW
SciTegic.value.DoubleValue
0.281

@<SCITEGIC>MOL_PROPERTY
VdW6
SciTegic.value.DoubleValue
-4.909

@<SCITEGIC>MOL_PROPERTY
VdW12
SciTegic.value.DoubleValue
5.190

@<SCITEGIC>MOL_PROPERTY
Bond
SciTegic.value.DoubleValue
0.156

@<SCITEGIC>MOL_PROPERTY
Angle
SciTegic.value.DoubleValue
0.974

@<SCITEGIC>MOL_PROPERTY
Pdih
SciTegic.value.DoubleValue
1.799

@<SCITEGIC>MOL_PROPERTY
Idih
SciTegic.value.DoubleValue
0.000

@<SCITEGIC>MOL_PROPERTY
Tether
SciTegic.value.DoubleValue
0.000

@<TRIPOS>MOLECULE
guest-s11_confgen4.mol2 : confsearch ligand conformer 410
          20          19           1
SMALL
USER_CHARGES
 
@<TRIPOS>ATOM
       1    N1      19.626534   21.401656   22.692844 N.4        1 MOL1        -0.5919
       2    H1      20.588401   21.055851   22.645330 H          1 MOL1         0.3682
       3    H2      19.400456   21.794320   21.773602 H          1 MOL1         0.3682
       4    H3      19.619435   22.181687   23.358535 H          1 MOL1         0.3682
       5    C1      18.651135   20.311709   23.094320 C.3        1 MOL1         0.0252
       6    H4      17.659348   20.770546   23.131544 H          1 MOL1         0.0971
       7    H5      18.903872   19.971456   24.102135 H          1 MOL1         0.0971
       8    C2      18.609907   19.107789   22.129771 C.3        1 MOL1        -0.1369
       9    H6      17.641302   18.607571   22.261903 H          1 MOL1         0.0997
      10    H7      18.627771   19.458186   21.089234 H          1 MOL1         0.0997
      11    C3      19.723452   18.054902   22.364756 C.3        1 MOL1        -0.1329
      12    H8      19.527306   17.197433   21.706157 H          1 MOL1         0.0997
      13    H9      19.654527   17.672306   23.392538 H          1 MOL1         0.0997
      14    C4      21.158206   18.568916   22.100968 C.3        1 MOL1        -0.1305
      15    H10     21.207290   19.050465   21.114234 H          1 MOL1         0.0997
      16    H11     21.430099   19.325095   22.848042 H          1 MOL1         0.0997
      17    C5      22.192183   17.424270   22.161743 C.3        1 MOL1        -0.2320
      18    H12     21.982077   16.660404   21.401752 H          1 MOL1         0.1008
      19    H13     23.205331   17.806828   21.982212 H          1 MOL1         0.1008
      20    H14     22.185442   16.937993   23.145999 H          1 MOL1         0.1008
@<TRIPOS>BOND
    1     1     2    1
    2     1     3    1
    3     1     4    1
    4     1     5    1
    5     5     6    1
    6     5     7    1
    7     5     8    1
    8     8     9    1
    9     8    10    1
   10     8    11    1
   11    11    12    1
   12    11    13    1
   13    11    14    1
   14    14    15    1
   15    14    16    1
   16    14    17    1
   17    17    18    1
   18    17    19    1
   19    17    20    1
@<TRIPOS>SUBSTRUCTURE
       1 MOL1            1 RESIDUE      1      MOL     
@<SCITEGIC>MOL_PROPERTY
VConf Rank
SciTegic.value.IntegerValue
410

@<SCITEGIC>MOL_PROPERTY
Conf_Id
SciTegic.value.IntegerValue
26

@<SCITEGIC>MOL_PROPERTY
Delta U+W
SciTegic.value.DoubleValue
2.809

@<SCITEGIC>MOL_PROPERTY
U+W
SciTegic.value.DoubleValue
-8.969

@<SCITEGIC>MOL_PROPERTY
Grad RMS
SciTegic.value.DoubleValue
0.000000

@<SCITEGIC>MOL_PROPERTY
U
SciTegic.value.DoubleValue
49.216

@<SCITEGIC>MOL_PROPERTY
W
SciTegic.value.DoubleValue
-58.185

@<SCITEGIC>MOL_PROPERTY
W(PB)
SciTegic.value.DoubleValue
-60.088

@<SCITEGIC>MOL_PROPERTY
W(SA)
SciTegic.value.DoubleValue
1.903

@<SCITEGIC>MOL_PROPERTY
Valence
SciTegic.value.DoubleValue
2.929

@<SCITEGIC>MOL_PROPERTY
Coulomb
SciTegic.value.DoubleValue
46.006

@<SCITEGIC>MOL_PROPERTY
VdW
SciTegic.value.DoubleValue
0.281

@<SCITEGIC>MOL_PROPERTY
VdW6
SciTegic.value.DoubleValue
-4.909

@<SCITEGIC>MOL_PROPERTY
VdW12
SciTegic.value.DoubleValue
5.190

@<SCITEGIC>MOL_PROPERTY
Bond
SciTegic.value.DoubleValue
0.156

@<SCITEGIC>MOL_PROPERTY
Angle
SciTegic.value.DoubleValue
0.974

@<SCITEGIC>MOL_PROPERTY
Pdih
SciTegic.value.DoubleValue
1.799

@<SCITEGIC>MOL_PROPERTY
Idih
SciTegic.value.DoubleValue
0.000

@<SCITEGIC>MOL_PROPERTY
Tether
SciTegic.value.DoubleValue
0.000

@<TRIPOS>MOLECULE
guest-s11_confgen4.mol2 : confsearch ligand conformer 411
          20          19           1
SMALL
USER_CHARGES
 
@<TRIPOS>ATOM
       1    N1      18.088436   19.151693   23.762167 N.4        1 MOL1        -0.5919
       2    H1      17.845302   19.485181   22.824825 H          1 MOL1         0.3682
       3    H2      17.625018   18.246925   23.891301 H          1 MOL1         0.3682
       4    H3      17.664884   19.802223   24.432036 H          1 MOL1         0.3682
       5    C1      19.589557   19.047998   23.948938 C.3        1 MOL1         0.0252
       6    H4      19.775533   18.718534   24.974791 H          1 MOL1         0.0971
       7    H5      20.016593   20.047359   23.831257 H          1 MOL1         0.0971
       8    C2      20.270248   18.072951   22.966984 C.3        1 MOL1        -0.1369
       9    H6      21.335543   18.001259   23.221029 H          1 MOL1         0.0997
      10    H7      19.858386   17.066216   23.116956 H          1 MOL1         0.0997
      11    C3      20.116271   18.470470   21.475251 C.3        1 MOL1        -0.1329
      12    H8      19.061407   18.382078   21.182579 H          1 MOL1         0.0997
      13    H9      20.657741   17.740956   20.857337 H          1 MOL1         0.0997
      14    C4      20.616098   19.895978   21.127212 C.3        1 MOL1        -0.1305
      15    H10     20.439973   20.077932   20.057761 H          1 MOL1         0.0997
      16    H11     20.021994   20.648755   21.662807 H          1 MOL1         0.0997
      17    C5      22.117064   20.109670   21.427676 C.3        1 MOL1        -0.2320
      18    H12     22.732886   19.358409   20.916469 H          1 MOL1         0.1008
      19    H13     22.441066   21.100100   21.082775 H          1 MOL1         0.1008
      20    H14     22.324871   20.050709   22.503288 H          1 MOL1         0.1008
@<TRIPOS>BOND
    1     1     2    1
    2     1     3    1
    3     1     4    1
    4     1     5    1
    5     5     6    1
    6     5     7    1
    7     5     8    1
    8     8     9    1
    9     8    10    1
   10     8    11    1
   11    11    12    1
   12    11    13    1
   13    11    14    1
   14    14    15    1
   15    14    16    1
   16    14    17    1
   17    17    18    1
   18    17    19    1
   19    17    20    1
@<TRIPOS>SUBSTRUCTURE
       1 MOL1            1 RESIDUE      1      MOL     
@<SCITEGIC>MOL_PROPERTY
VConf Rank
SciTegic.value.IntegerValue
411

@<SCITEGIC>MOL_PROPERTY
Conf_Id
SciTegic.value.IntegerValue
2

@<SCITEGIC>MOL_PROPERTY
Delta U+W
SciTegic.value.DoubleValue
0.994

@<SCITEGIC>MOL_PROPERTY
U+W
SciTegic.value.DoubleValue
-10.784

@<SCITEGIC>MOL_PROPERTY
Grad RMS
SciTegic.value.DoubleValue
0.000000

@<SCITEGIC>MOL_PROPERTY
U
SciTegic.value.DoubleValue
47.562

@<SCITEGIC>MOL_PROPERTY
W
SciTegic.value.DoubleValue
-58.346

@<SCITEGIC>MOL_PROPERTY
W(PB)
SciTegic.value.DoubleValue
-60.221

@<SCITEGIC>MOL_PROPERTY
W(SA)
SciTegic.value.DoubleValue
1.875

@<SCITEGIC>MOL_PROPERTY
Valence
SciTegic.value.DoubleValue
2.149

@<SCITEGIC>MOL_PROPERTY
Coulomb
SciTegic.value.DoubleValue
45.034

@<SCITEGIC>MOL_PROPERTY
VdW
SciTegic.value.DoubleValue
0.378

@<SCITEGIC>MOL_PROPERTY
VdW6
SciTegic.value.DoubleValue
-5.599

@<SCITEGIC>MOL_PROPERTY
VdW12
SciTegic.value.DoubleValue
5.977

@<SCITEGIC>MOL_PROPERTY
Bond
SciTegic.value.DoubleValue
0.185

@<SCITEGIC>MOL_PROPERTY
Angle
SciTegic.value.DoubleValue
0.935

@<SCITEGIC>MOL_PROPERTY
Pdih
SciTegic.value.DoubleValue
1.028

@<SCITEGIC>MOL_PROPERTY
Idih
SciTegic.value.DoubleValue
0.000

@<SCITEGIC>MOL_PROPERTY
Tether
SciTegic.value.DoubleValue
0.000

@<TRIPOS>MOLECULE
guest-s11_confgen4.mol2 : confsearch ligand conformer 412
          20          19           1
SMALL
USER_CHARGES
 
@<TRIPOS>ATOM
       1    N1      20.037065   16.668677   22.362554 N.4        1 MOL1        -0.5919
       2    H1      19.136083   16.260578   22.094739 H          1 MOL1         0.3682
       3    H2      20.495787   16.980749   21.501668 H          1 MOL1         0.3682
       4    H3      20.606444   15.908031   22.747953 H          1 MOL1         0.3682
       5    C1      19.869377   17.804818   23.352534 C.3        1 MOL1         0.0252
       6    H4      20.863622   18.171582   23.620668 H          1 MOL1         0.0971
       7    H5      19.404657   17.395484   24.253638 H          1 MOL1         0.0971
       8    C2      19.011940   18.970256   22.818828 C.3        1 MOL1        -0.1369
       9    H6      18.005774   18.598155   22.584711 H          1 MOL1         0.0997
      10    H7      18.879080   19.707815   23.620631 H          1 MOL1         0.0997
      11    C3      19.603722   19.665593   21.564519 C.3        1 MOL1        -0.1329
      12    H8      18.946312   20.498268   21.278750 H          1 MOL1         0.0997
      13    H9      19.582427   18.966769   20.717525 H          1 MOL1         0.0997
      14    C4      21.048410   20.200168   21.738129 C.3        1 MOL1        -0.1305
      15    H10     21.740993   19.369421   21.929660 H          1 MOL1         0.0997
      16    H11     21.372250   20.650003   20.789117 H          1 MOL1         0.0997
      17    C5      21.180977   21.255312   22.859707 C.3        1 MOL1        -0.2320
      18    H12     20.977402   20.821713   23.846698 H          1 MOL1         0.1008
      19    H13     22.198737   21.665800   22.883145 H          1 MOL1         0.1008
      20    H14     20.486151   22.090085   22.700551 H          1 MOL1         0.1008
@<TRIPOS>BOND
    1     1     2    1
    2     1     3    1
    3     1     4    1
    4     1     5    1
    5     5     6    1
    6     5     7    1
    7     5     8    1
    8     8     9    1
    9     8    10    1
   10     8    11    1
   11    11    12    1
   12    11    13    1
   13    11    14    1
   14    14    15    1
   15    14    16    1
   16    14    17    1
   17    17    18    1
   18    17    19    1
   19    17    20    1
@<TRIPOS>SUBSTRUCTURE
       1 MOL1            1 RESIDUE      1      MOL     
@<SCITEGIC>MOL_PROPERTY
VConf Rank
SciTegic.value.IntegerValue
412

@<SCITEGIC>MOL_PROPERTY
Conf_Id
SciTegic.value.IntegerValue
1

@<SCITEGIC>MOL_PROPERTY
Delta U+W
SciTegic.value.DoubleValue
1.032

@<SCITEGIC>MOL_PROPERTY
U+W
SciTegic.value.DoubleValue
-10.746

@<SCITEGIC>MOL_PROPERTY
Grad RMS
SciTegic.value.DoubleValue
0.000000

@<SCITEGIC>MOL_PROPERTY
U
SciTegic.value.DoubleValue
47.562

@<SCITEGIC>MOL_PROPERTY
W
SciTegic.value.DoubleValue
-58.308

@<SCITEGIC>MOL_PROPERTY
W(PB)
SciTegic.value.DoubleValue
-60.184

@<SCITEGIC>MOL_PROPERTY
W(SA)
SciTegic.value.DoubleValue
1.877

@<SCITEGIC>MOL_PROPERTY
Valence
SciTegic.value.DoubleValue
2.149

@<SCITEGIC>MOL_PROPERTY
Coulomb
SciTegic.value.DoubleValue
45.035

@<SCITEGIC>MOL_PROPERTY
VdW
SciTegic.value.DoubleValue
0.378

@<SCITEGIC>MOL_PROPERTY
VdW6
SciTegic.value.DoubleValue
-5.599

@<SCITEGIC>MOL_PROPERTY
VdW12
SciTegic.value.DoubleValue
5.978

@<SCITEGIC>MOL_PROPERTY
Bond
SciTegic.value.DoubleValue
0.185

@<SCITEGIC>MOL_PROPERTY
Angle
SciTegic.value.DoubleValue
0.935

@<SCITEGIC>MOL_PROPERTY
Pdih
SciTegic.value.DoubleValue
1.028

@<SCITEGIC>MOL_PROPERTY
Idih
SciTegic.value.DoubleValue
0.000

@<SCITEGIC>MOL_PROPERTY
Tether
SciTegic.value.DoubleValue
0.000

@<TRIPOS>MOLECULE
guest-s11_confgen4.mol2 : confsearch ligand conformer 413
          20          19           1
SMALL
USER_CHARGES
 
@<TRIPOS>ATOM
       1    N1      22.191647   20.372071   22.719513 N.4        1 MOL1        -0.5919
       2    H1      22.578956   20.512806   23.657743 H          1 MOL1         0.3682
       3    H2      22.453061   19.427537   22.422526 H          1 MOL1         0.3682
       4    H3      22.675648   21.026580   22.096048 H          1 MOL1         0.3682
       5    C1      20.689122   20.575681   22.692733 C.3        1 MOL1         0.0252
       6    H4      20.350040   20.441937   21.664308 H          1 MOL1         0.0971
       7    H5      20.493146   21.612581   22.979011 H          1 MOL1         0.0971
       8    C2      19.915306   19.634486   23.640403 C.3        1 MOL1        -0.1369
       9    H6      20.292072   19.792703   24.659635 H          1 MOL1         0.0997
      10    H7      18.857862   19.929376   23.662072 H          1 MOL1         0.0997
      11    C3      20.027921   18.125711   23.292210 C.3        1 MOL1        -0.1329
      12    H8      19.823928   17.553111   24.207600 H          1 MOL1         0.0997
      13    H9      21.057221   17.868895   23.010587 H          1 MOL1         0.0997
      14    C4      19.041279   17.627260   22.204958 C.3        1 MOL1        -0.1305
      15    H10     19.151309   16.537528   22.113717 H          1 MOL1         0.0997
      16    H11     18.007448   17.800147   22.535238 H          1 MOL1         0.0997
      17    C5      19.247530   18.259256   20.810694 C.3        1 MOL1        -0.2320
      18    H12     20.298704   18.205068   20.499474 H          1 MOL1         0.1008
      19    H13     18.647919   17.729724   20.059035 H          1 MOL1         0.1008
      20    H14     18.929171   19.308302   20.796485 H          1 MOL1         0.1008
@<TRIPOS>BOND
    1     1     2    1
    2     1     3    1
    3     1     4    1
    4     1     5    1
    5     5     6    1
    6     5     7    1
    7     5     8    1
    8     8     9    1
    9     8    10    1
   10     8    11    1
   11    11    12    1
   12    11    13    1
   13    11    14    1
   14    14    15    1
   15    14    16    1
   16    14    17    1
   17    17    18    1
   18    17    19    1
   19    17    20    1
@<TRIPOS>SUBSTRUCTURE
       1 MOL1            1 RESIDUE      1      MOL     
@<SCITEGIC>MOL_PROPERTY
VConf Rank
SciTegic.value.IntegerValue
413

@<SCITEGIC>MOL_PROPERTY
Conf_Id
SciTegic.value.IntegerValue
80

@<SCITEGIC>MOL_PROPERTY
Delta U+W
SciTegic.value.DoubleValue
2.920

@<SCITEGIC>MOL_PROPERTY
U+W
SciTegic.value.DoubleValue
-8.857

@<SCITEGIC>MOL_PROPERTY
Grad RMS
SciTegic.value.DoubleValue
0.000000

@<SCITEGIC>MOL_PROPERTY
U
SciTegic.value.DoubleValue
49.434

@<SCITEGIC>MOL_PROPERTY
W
SciTegic.value.DoubleValue
-58.292

@<SCITEGIC>MOL_PROPERTY
W(PB)
SciTegic.value.DoubleValue
-60.170

@<SCITEGIC>MOL_PROPERTY
W(SA)
SciTegic.value.DoubleValue
1.879

@<SCITEGIC>MOL_PROPERTY
Valence
SciTegic.value.DoubleValue
3.798

@<SCITEGIC>MOL_PROPERTY
Coulomb
SciTegic.value.DoubleValue
45.253

@<SCITEGIC>MOL_PROPERTY
VdW
SciTegic.value.DoubleValue
0.384

@<SCITEGIC>MOL_PROPERTY
VdW6
SciTegic.value.DoubleValue
-5.595

@<SCITEGIC>MOL_PROPERTY
VdW12
SciTegic.value.DoubleValue
5.979

@<SCITEGIC>MOL_PROPERTY
Bond
SciTegic.value.DoubleValue
0.198

@<SCITEGIC>MOL_PROPERTY
Angle
SciTegic.value.DoubleValue
1.368

@<SCITEGIC>MOL_PROPERTY
Pdih
SciTegic.value.DoubleValue
2.231

@<SCITEGIC>MOL_PROPERTY
Idih
SciTegic.value.DoubleValue
0.000

@<SCITEGIC>MOL_PROPERTY
Tether
SciTegic.value.DoubleValue
0.000

@<TRIPOS>MOLECULE
guest-s11_confgen4.mol2 : confsearch ligand conformer 414
          20          19           1
SMALL
USER_CHARGES
 
@<TRIPOS>ATOM
       1    N1      20.124193   20.824732   20.810464 N.4        1 MOL1        -0.5919
       2    H1      19.281907   21.401043   20.718220 H          1 MOL1         0.3682
       3    H2      20.851612   21.266423   20.238523 H          1 MOL1         0.3682
       4    H3      19.918291   19.916991   20.383501 H          1 MOL1         0.3682
       5    C1      20.554919   20.682211   22.257503 C.3        1 MOL1         0.0252
       6    H4      20.796534   21.682092   22.628154 H          1 MOL1         0.0971
       7    H5      21.468916   20.086678   22.279080 H          1 MOL1         0.0971
       8    C2      19.480619   20.051015   23.168655 C.3        1 MOL1        -0.1369
       9    H6      19.814279   20.102177   24.213486 H          1 MOL1         0.0997
      10    H7      18.577389   20.672855   23.111127 H          1 MOL1         0.0997
      11    C3      19.105567   18.587036   22.813090 C.3        1 MOL1        -0.1329
      12    H8      19.021651   18.461765   21.725898 H          1 MOL1         0.0997
      13    H9      18.098908   18.392258   23.208216 H          1 MOL1         0.0997
      14    C4      20.050045   17.506213   23.399456 C.3        1 MOL1        -0.1305
      15    H10     20.055871   17.574578   24.496303 H          1 MOL1         0.0997
      16    H11     19.632772   16.517959   23.160323 H          1 MOL1         0.0997
      17    C5      21.501120   17.566001   22.873399 C.3        1 MOL1        -0.2320
      18    H12     22.037313   18.432615   23.277789 H          1 MOL1         0.1008
      19    H13     22.056092   16.670456   23.181512 H          1 MOL1         0.1008
      20    H14     21.526532   17.615149   21.777179 H          1 MOL1         0.1008
@<TRIPOS>BOND
    1     1     2    1
    2     1     3    1
    3     1     4    1
    4     1     5    1
    5     5     6    1
    6     5     7    1
    7     5     8    1
    8     8     9    1
    9     8    10    1
   10     8    11    1
   11    11    12    1
   12    11    13    1
   13    11    14    1
   14    14    15    1
   15    14    16    1
   16    14    17    1
   17    17    18    1
   18    17    19    1
   19    17    20    1
@<TRIPOS>SUBSTRUCTURE
       1 MOL1            1 RESIDUE      1      MOL     
@<SCITEGIC>MOL_PROPERTY
VConf Rank
SciTegic.value.IntegerValue
414

@<SCITEGIC>MOL_PROPERTY
Conf_Id
SciTegic.value.IntegerValue
65

@<SCITEGIC>MOL_PROPERTY
Delta U+W
SciTegic.value.DoubleValue
2.949

@<SCITEGIC>MOL_PROPERTY
U+W
SciTegic.value.DoubleValue
-8.829

@<SCITEGIC>MOL_PROPERTY
Grad RMS
SciTegic.value.DoubleValue
0.000000

@<SCITEGIC>MOL_PROPERTY
U
SciTegic.value.DoubleValue
49.435

@<SCITEGIC>MOL_PROPERTY
W
SciTegic.value.DoubleValue
-58.263

@<SCITEGIC>MOL_PROPERTY
W(PB)
SciTegic.value.DoubleValue
-60.125

@<SCITEGIC>MOL_PROPERTY
W(SA)
SciTegic.value.DoubleValue
1.862

@<SCITEGIC>MOL_PROPERTY
Valence
SciTegic.value.DoubleValue
3.797

@<SCITEGIC>MOL_PROPERTY
Coulomb
SciTegic.value.DoubleValue
45.253

@<SCITEGIC>MOL_PROPERTY
VdW
SciTegic.value.DoubleValue
0.384

@<SCITEGIC>MOL_PROPERTY
VdW6
SciTegic.value.DoubleValue
-5.596

@<SCITEGIC>MOL_PROPERTY
VdW12
SciTegic.value.DoubleValue
5.980

@<SCITEGIC>MOL_PROPERTY
Bond
SciTegic.value.DoubleValue
0.198

@<SCITEGIC>MOL_PROPERTY
Angle
SciTegic.value.DoubleValue
1.369

@<SCITEGIC>MOL_PROPERTY
Pdih
SciTegic.value.DoubleValue
2.230

@<SCITEGIC>MOL_PROPERTY
Idih
SciTegic.value.DoubleValue
0.000

@<SCITEGIC>MOL_PROPERTY
Tether
SciTegic.value.DoubleValue
0.000

@<TRIPOS>MOLECULE
guest-s11_confgen4.mol2 : confsearch ligand conformer 415
          20          19           1
SMALL
USER_CHARGES
 
@<TRIPOS>ATOM
       1    N1      19.733599   21.024222   21.722920 N.4        1 MOL1        -0.5919
       2    H1      19.354409   21.428207   20.859963 H          1 MOL1         0.3682
       3    H2      18.999609   20.440667   22.135772 H          1 MOL1         0.3682
       4    H3      19.902667   21.803027   22.367345 H          1 MOL1         0.3682
       5    C1      20.995646   20.224444   21.463795 C.3        1 MOL1         0.0252
       6    H4      21.725875   20.912115   21.028601 H          1 MOL1         0.0971
       7    H5      20.774934   19.451029   20.723311 H          1 MOL1         0.0971
       8    C2      21.600857   19.581664   22.728297 C.3        1 MOL1        -0.1369
       9    H6      22.666773   19.403005   22.534095 H          1 MOL1         0.0997
      10    H7      21.565209   20.295713   23.561767 H          1 MOL1         0.0997
      11    C3      20.964332   18.230954   23.152889 C.3        1 MOL1        -0.1329
      12    H8      21.523299   17.864607   24.025167 H          1 MOL1         0.0997
      13    H9      21.122024   17.479245   22.367056 H          1 MOL1         0.0997
      14    C4      19.463779   18.292783   23.536345 C.3        1 MOL1        -0.1305
      15    H10     19.283135   17.585215   24.357912 H          1 MOL1         0.0997
      16    H11     19.210338   19.282781   23.938757 H          1 MOL1         0.0997
      17    C5      18.522142   17.911911   22.369265 C.3        1 MOL1        -0.2320
      18    H12     18.687882   18.527341   21.478550 H          1 MOL1         0.1008
      19    H13     18.673377   16.864364   22.077556 H          1 MOL1         0.1008
      20    H14     17.471539   18.022923   22.667744 H          1 MOL1         0.1008
@<TRIPOS>BOND
    1     1     2    1
    2     1     3    1
    3     1     4    1
    4     1     5    1
    5     5     6    1
    6     5     7    1
    7     5     8    1
    8     8     9    1
    9     8    10    1
   10     8    11    1
   11    11    12    1
   12    11    13    1
   13    11    14    1
   14    14    15    1
   15    14    16    1
   16    14    17    1
   17    17    18    1
   18    17    19    1
   19    17    20    1
@<TRIPOS>SUBSTRUCTURE
       1 MOL1            1 RESIDUE      1      MOL     
@<SCITEGIC>MOL_PROPERTY
VConf Rank
SciTegic.value.IntegerValue
415

@<SCITEGIC>MOL_PROPERTY
Conf_Id
SciTegic.value.IntegerValue
77

@<SCITEGIC>MOL_PROPERTY
Delta U+W
SciTegic.value.DoubleValue
5.366

@<SCITEGIC>MOL_PROPERTY
U+W
SciTegic.value.DoubleValue
-6.412

@<SCITEGIC>MOL_PROPERTY
Grad RMS
SciTegic.value.DoubleValue
0.000000

@<SCITEGIC>MOL_PROPERTY
U
SciTegic.value.DoubleValue
51.542

@<SCITEGIC>MOL_PROPERTY
W
SciTegic.value.DoubleValue
-57.954

@<SCITEGIC>MOL_PROPERTY
W(PB)
SciTegic.value.DoubleValue
-59.811

@<SCITEGIC>MOL_PROPERTY
W(SA)
SciTegic.value.DoubleValue
1.857

@<SCITEGIC>MOL_PROPERTY
Valence
SciTegic.value.DoubleValue
5.347

@<SCITEGIC>MOL_PROPERTY
Coulomb
SciTegic.value.DoubleValue
45.870

@<SCITEGIC>MOL_PROPERTY
VdW
SciTegic.value.DoubleValue
0.325

@<SCITEGIC>MOL_PROPERTY
VdW6
SciTegic.value.DoubleValue
-6.161

@<SCITEGIC>MOL_PROPERTY
VdW12
SciTegic.value.DoubleValue
6.486

@<SCITEGIC>MOL_PROPERTY
Bond
SciTegic.value.DoubleValue
0.201

@<SCITEGIC>MOL_PROPERTY
Angle
SciTegic.value.DoubleValue
1.484

@<SCITEGIC>MOL_PROPERTY
Pdih
SciTegic.value.DoubleValue
3.662

@<SCITEGIC>MOL_PROPERTY
Idih
SciTegic.value.DoubleValue
0.000

@<SCITEGIC>MOL_PROPERTY
Tether
SciTegic.value.DoubleValue
0.000

@<TRIPOS>MOLECULE
guest-s11_confgen4.mol2 : confsearch ligand conformer 416
          20          19           1
SMALL
USER_CHARGES
 
@<TRIPOS>ATOM
       1    N1      19.722162   17.179258   22.933731 N.4        1 MOL1        -0.5919
       2    H1      18.943322   17.088032   23.593648 H          1 MOL1         0.3682
       3    H2      19.356791   17.634909   22.091940 H          1 MOL1         0.3682
       4    H3      20.002547   16.228681   22.670157 H          1 MOL1         0.3682
       5    C1      20.875806   17.962320   23.529953 C.3        1 MOL1         0.0252
       6    H4      21.700512   17.972963   22.812353 H          1 MOL1         0.0971
       7    H5      21.206338   17.417443   24.418422 H          1 MOL1         0.0971
       8    C2      20.511922   19.406225   23.931373 C.3        1 MOL1        -0.1369
       9    H6      19.528835   19.419605   24.420423 H          1 MOL1         0.0997
      10    H7      21.229892   19.730765   24.696229 H          1 MOL1         0.0997
      11    C3      20.549622   20.443091   22.776665 C.3        1 MOL1        -0.1329
      12    H8      21.570783   20.523646   22.378915 H          1 MOL1         0.0997
      13    H9      20.326233   21.427097   23.211817 H          1 MOL1         0.0997
      14    C4      19.547289   20.190863   21.621576 C.3        1 MOL1        -0.1305
      15    H10     18.655758   19.668265   21.993500 H          1 MOL1         0.0997
      16    H11     19.187648   21.161656   21.252147 H          1 MOL1         0.0997
      17    C5      20.174725   19.433854   20.426971 C.3        1 MOL1        -0.2320
      18    H12     19.418038   19.228405   19.658598 H          1 MOL1         0.1008
      19    H13     20.964201   20.036931   19.959693 H          1 MOL1         0.1008
      20    H14     20.623450   18.479860   20.723848 H          1 MOL1         0.1008
@<TRIPOS>BOND
    1     1     2    1
    2     1     3    1
    3     1     4    1
    4     1     5    1
    5     5     6    1
    6     5     7    1
    7     5     8    1
    8     8     9    1
    9     8    10    1
   10     8    11    1
   11    11    12    1
   12    11    13    1
   13    11    14    1
   14    14    15    1
   15    14    16    1
   16    14    17    1
   17    17    18    1
   18    17    19    1
   19    17    20    1
@<TRIPOS>SUBSTRUCTURE
       1 MOL1            1 RESIDUE      1      MOL     
@<SCITEGIC>MOL_PROPERTY
VConf Rank
SciTegic.value.IntegerValue
416

@<SCITEGIC>MOL_PROPERTY
Conf_Id
SciTegic.value.IntegerValue
67

@<SCITEGIC>MOL_PROPERTY
Delta U+W
SciTegic.value.DoubleValue
5.353

@<SCITEGIC>MOL_PROPERTY
U+W
SciTegic.value.DoubleValue
-6.425

@<SCITEGIC>MOL_PROPERTY
Grad RMS
SciTegic.value.DoubleValue
0.000000

@<SCITEGIC>MOL_PROPERTY
U
SciTegic.value.DoubleValue
51.541

@<SCITEGIC>MOL_PROPERTY
W
SciTegic.value.DoubleValue
-57.966

@<SCITEGIC>MOL_PROPERTY
W(PB)
SciTegic.value.DoubleValue
-59.821

@<SCITEGIC>MOL_PROPERTY
W(SA)
SciTegic.value.DoubleValue
1.855

@<SCITEGIC>MOL_PROPERTY
Valence
SciTegic.value.DoubleValue
5.347

@<SCITEGIC>MOL_PROPERTY
Coulomb
SciTegic.value.DoubleValue
45.870

@<SCITEGIC>MOL_PROPERTY
VdW
SciTegic.value.DoubleValue
0.325

@<SCITEGIC>MOL_PROPERTY
VdW6
SciTegic.value.DoubleValue
-6.161

@<SCITEGIC>MOL_PROPERTY
VdW12
SciTegic.value.DoubleValue
6.486

@<SCITEGIC>MOL_PROPERTY
Bond
SciTegic.value.DoubleValue
0.201

@<SCITEGIC>MOL_PROPERTY
Angle
SciTegic.value.DoubleValue
1.485

@<SCITEGIC>MOL_PROPERTY
Pdih
SciTegic.value.DoubleValue
3.662

@<SCITEGIC>MOL_PROPERTY
Idih
SciTegic.value.DoubleValue
0.000

@<SCITEGIC>MOL_PROPERTY
Tether
SciTegic.value.DoubleValue
0.000

@<TRIPOS>MOLECULE
guest-s11_confgen4.mol2 : confsearch ligand conformer 417
          20          19           1
SMALL
USER_CHARGES
 
@<TRIPOS>ATOM
       1    N1      17.856620   17.333220   21.103040 N.4        1 MOL1        -0.5919
       2    H1      17.262844   18.095774   20.761971 H          1 MOL1         0.3682
       3    H2      17.801736   16.580569   20.408704 H          1 MOL1         0.3682
       4    H3      17.425607   16.976928   21.961918 H          1 MOL1         0.3682
       5    C1      19.284776   17.785743   21.331260 C.3        1 MOL1         0.0252
       6    H4      19.689316   18.122616   20.372938 H          1 MOL1         0.0971
       7    H5      19.864240   16.919924   21.663063 H          1 MOL1         0.0971
       8    C2      19.402587   18.916271   22.369187 C.3        1 MOL1        -0.1369
       9    H6      18.806373   19.777707   22.039755 H          1 MOL1         0.0997
      10    H7      18.980694   18.579170   23.325449 H          1 MOL1         0.0997
      11    C3      20.872148   19.347548   22.571972 C.3        1 MOL1        -0.1329
      12    H8      21.292641   19.679234   21.612305 H          1 MOL1         0.0997
      13    H9      21.466745   18.482158   22.896542 H          1 MOL1         0.0997
      14    C4      21.002650   20.482578   23.612267 C.3        1 MOL1        -0.1305
      15    H10     20.410954   21.351116   23.290418 H          1 MOL1         0.0997
      16    H11     20.585130   20.154190   24.574496 H          1 MOL1         0.0997
      17    C5      22.472484   20.910216   23.811500 C.3        1 MOL1        -0.2320
      18    H12     22.908051   21.276528   22.872717 H          1 MOL1         0.1008
      19    H13     22.544632   21.716390   24.553066 H          1 MOL1         0.1008
      20    H14     23.083563   20.070306   24.166952 H          1 MOL1         0.1008
@<TRIPOS>BOND
    1     1     2    1
    2     1     3    1
    3     1     4    1
    4     1     5    1
    5     5     6    1
    6     5     7    1
    7     5     8    1
    8     8     9    1
    9     8    10    1
   10     8    11    1
   11    11    12    1
   12    11    13    1
   13    11    14    1
   14    14    15    1
   15    14    16    1
   16    14    17    1
   17    17    18    1
   18    17    19    1
   19    17    20    1
@<TRIPOS>SUBSTRUCTURE
       1 MOL1            1 RESIDUE      1      MOL     
@<SCITEGIC>MOL_PROPERTY
VConf Rank
SciTegic.value.IntegerValue
417

@<SCITEGIC>MOL_PROPERTY
Conf_Id
SciTegic.value.IntegerValue
72

@<SCITEGIC>MOL_PROPERTY
Delta U+W
SciTegic.value.DoubleValue
0.000

@<SCITEGIC>MOL_PROPERTY
U+W
SciTegic.value.DoubleValue
-11.778

@<SCITEGIC>MOL_PROPERTY
Grad RMS
SciTegic.value.DoubleValue
0.000000

@<SCITEGIC>MOL_PROPERTY
U
SciTegic.value.DoubleValue
45.772

@<SCITEGIC>MOL_PROPERTY
W
SciTegic.value.DoubleValue
-57.550

@<SCITEGIC>MOL_PROPERTY
W(PB)
SciTegic.value.DoubleValue
-59.511

@<SCITEGIC>MOL_PROPERTY
W(SA)
SciTegic.value.DoubleValue
1.961

@<SCITEGIC>MOL_PROPERTY
Valence
SciTegic.value.DoubleValue
1.299

@<SCITEGIC>MOL_PROPERTY
Coulomb
SciTegic.value.DoubleValue
44.177

@<SCITEGIC>MOL_PROPERTY
VdW
SciTegic.value.DoubleValue
0.297

@<SCITEGIC>MOL_PROPERTY
VdW6
SciTegic.value.DoubleValue
-3.490

@<SCITEGIC>MOL_PROPERTY
VdW12
SciTegic.value.DoubleValue
3.786

@<SCITEGIC>MOL_PROPERTY
Bond
SciTegic.value.DoubleValue
0.096

@<SCITEGIC>MOL_PROPERTY
Angle
SciTegic.value.DoubleValue
0.381

@<SCITEGIC>MOL_PROPERTY
Pdih
SciTegic.value.DoubleValue
0.822

@<SCITEGIC>MOL_PROPERTY
Idih
SciTegic.value.DoubleValue
0.000

@<SCITEGIC>MOL_PROPERTY
Tether
SciTegic.value.DoubleValue
0.000

@<TRIPOS>MOLECULE
guest-s11_confgen4.mol2 : confsearch ligand conformer 418
          20          19           1
SMALL
USER_CHARGES
 
@<TRIPOS>ATOM
       1    N1      17.747286   20.824152   21.598489 N.4        1 MOL1        -0.5919
       2    H1      17.210833   20.544889   22.425874 H          1 MOL1         0.3682
       3    H2      18.145641   21.747714   21.795235 H          1 MOL1         0.3682
       4    H3      17.073627   20.947572   20.835250 H          1 MOL1         0.3682
       5    C1      18.816397   19.809207   21.247115 C.3        1 MOL1         0.0252
       6    H4      19.325067   20.154370   20.342897 H          1 MOL1         0.0971
       7    H5      18.320711   18.861143   21.021338 H          1 MOL1         0.0971
       8    C2      19.845609   19.600052   22.372390 C.3        1 MOL1        -0.1369
       9    H6      20.329475   20.557517   22.606795 H          1 MOL1         0.0997
      10    H7      19.322349   19.271145   23.279080 H          1 MOL1         0.0997
      11    C3      20.917400   18.559603   21.970071 C.3        1 MOL1        -0.1329
      12    H8      21.376458   18.867857   21.020341 H          1 MOL1         0.0997
      13    H9      20.438250   17.589046   21.780280 H          1 MOL1         0.0997
      14    C4      22.037218   18.386520   23.024925 C.3        1 MOL1        -0.1305
      15    H10     22.805095   17.714296   22.616979 H          1 MOL1         0.0997
      16    H11     22.535200   19.350443   23.200256 H          1 MOL1         0.0997
      17    C5      21.533241   17.810009   24.367748 C.3        1 MOL1        -0.2320
      18    H12     21.006291   16.858958   24.216613 H          1 MOL1         0.1008
      19    H13     22.376040   17.622102   25.045489 H          1 MOL1         0.1008
      20    H14     20.851841   18.504301   24.874773 H          1 MOL1         0.1008
@<TRIPOS>BOND
    1     1     2    1
    2     1     3    1
    3     1     4    1
    4     1     5    1
    5     5     6    1
    6     5     7    1
    7     5     8    1
    8     8     9    1
    9     8    10    1
   10     8    11    1
   11    11    12    1
   12    11    13    1
   13    11    14    1
   14    14    15    1
   15    14    16    1
   16    14    17    1
   17    17    18    1
   18    17    19    1
   19    17    20    1
@<TRIPOS>SUBSTRUCTURE
       1 MOL1            1 RESIDUE      1      MOL     
@<SCITEGIC>MOL_PROPERTY
VConf Rank
SciTegic.value.IntegerValue
418

@<SCITEGIC>MOL_PROPERTY
Conf_Id
SciTegic.value.IntegerValue
42

@<SCITEGIC>MOL_PROPERTY
Delta U+W
SciTegic.value.DoubleValue
0.508

@<SCITEGIC>MOL_PROPERTY
U+W
SciTegic.value.DoubleValue
-11.270

@<SCITEGIC>MOL_PROPERTY
Grad RMS
SciTegic.value.DoubleValue
0.000000

@<SCITEGIC>MOL_PROPERTY
U
SciTegic.value.DoubleValue
46.486

@<SCITEGIC>MOL_PROPERTY
W
SciTegic.value.DoubleValue
-57.756

@<SCITEGIC>MOL_PROPERTY
W(PB)
SciTegic.value.DoubleValue
-59.705

@<SCITEGIC>MOL_PROPERTY
W(SA)
SciTegic.value.DoubleValue
1.949

@<SCITEGIC>MOL_PROPERTY
Valence
SciTegic.value.DoubleValue
1.806

@<SCITEGIC>MOL_PROPERTY
Coulomb
SciTegic.value.DoubleValue
44.248

@<SCITEGIC>MOL_PROPERTY
VdW
SciTegic.value.DoubleValue
0.433

@<SCITEGIC>MOL_PROPERTY
VdW6
SciTegic.value.DoubleValue
-4.089

@<SCITEGIC>MOL_PROPERTY
VdW12
SciTegic.value.DoubleValue
4.522

@<SCITEGIC>MOL_PROPERTY
Bond
SciTegic.value.DoubleValue
0.131

@<SCITEGIC>MOL_PROPERTY
Angle
SciTegic.value.DoubleValue
0.628

@<SCITEGIC>MOL_PROPERTY
Pdih
SciTegic.value.DoubleValue
1.047

@<SCITEGIC>MOL_PROPERTY
Idih
SciTegic.value.DoubleValue
0.000

@<SCITEGIC>MOL_PROPERTY
Tether
SciTegic.value.DoubleValue
0.000

@<TRIPOS>MOLECULE
guest-s11_confgen4.mol2 : confsearch ligand conformer 419
          20          19           1
SMALL
USER_CHARGES
 
@<TRIPOS>ATOM
       1    N1      17.584098   17.590710   22.986084 N.4        1 MOL1        -0.5919
       2    H1      17.624935   16.962665   22.177224 H          1 MOL1         0.3682
       3    H2      17.997203   17.088840   23.778425 H          1 MOL1         0.3682
       4    H3      16.591920   17.727960   23.205917 H          1 MOL1         0.3682
       5    C1      18.288561   18.905530   22.718569 C.3        1 MOL1         0.0252
       6    H4      18.179974   19.533579   23.606978 H          1 MOL1         0.0971
       7    H5      17.779030   19.397916   21.885846 H          1 MOL1         0.0971
       8    C2      19.781408   18.735295   22.384359 C.3        1 MOL1        -0.1369
       9    H6      20.278715   18.224635   23.218613 H          1 MOL1         0.0997
      10    H7      19.886388   18.091137   21.501267 H          1 MOL1         0.0997
      11    C3      20.458621   20.100198   22.116854 C.3        1 MOL1        -0.1329
      12    H8      20.394113   20.728048   23.016426 H          1 MOL1         0.0997
      13    H9      19.900520   20.628599   21.331323 H          1 MOL1         0.0997
      14    C4      21.937303   19.980158   21.674407 C.3        1 MOL1        -0.1305
      15    H10     22.004058   19.372566   20.761033 H          1 MOL1         0.0997
      16    H11     22.307215   20.979602   21.405676 H          1 MOL1         0.0997
      17    C5      22.858551   19.384457   22.763432 C.3        1 MOL1        -0.2320
      18    H12     22.603325   18.339968   22.980979 H          1 MOL1         0.1008
      19    H13     23.905601   19.405832   22.434524 H          1 MOL1         0.1008
      20    H14     22.788800   19.957719   23.696984 H          1 MOL1         0.1008
@<TRIPOS>BOND
    1     1     2    1
    2     1     3    1
    3     1     4    1
    4     1     5    1
    5     5     6    1
    6     5     7    1
    7     5     8    1
    8     8     9    1
    9     8    10    1
   10     8    11    1
   11    11    12    1
   12    11    13    1
   13    11    14    1
   14    14    15    1
   15    14    16    1
   16    14    17    1
   17    17    18    1
   18    17    19    1
   19    17    20    1
@<TRIPOS>SUBSTRUCTURE
       1 MOL1            1 RESIDUE      1      MOL     
@<SCITEGIC>MOL_PROPERTY
VConf Rank
SciTegic.value.IntegerValue
419

@<SCITEGIC>MOL_PROPERTY
Conf_Id
SciTegic.value.IntegerValue
41

@<SCITEGIC>MOL_PROPERTY
Delta U+W
SciTegic.value.DoubleValue
0.515

@<SCITEGIC>MOL_PROPERTY
U+W
SciTegic.value.DoubleValue
-11.263

@<SCITEGIC>MOL_PROPERTY
Grad RMS
SciTegic.value.DoubleValue
0.000000

@<SCITEGIC>MOL_PROPERTY
U
SciTegic.value.DoubleValue
46.486

@<SCITEGIC>MOL_PROPERTY
W
SciTegic.value.DoubleValue
-57.749

@<SCITEGIC>MOL_PROPERTY
W(PB)
SciTegic.value.DoubleValue
-59.685

@<SCITEGIC>MOL_PROPERTY
W(SA)
SciTegic.value.DoubleValue
1.936

@<SCITEGIC>MOL_PROPERTY
Valence
SciTegic.value.DoubleValue
1.806

@<SCITEGIC>MOL_PROPERTY
Coulomb
SciTegic.value.DoubleValue
44.248

@<SCITEGIC>MOL_PROPERTY
VdW
SciTegic.value.DoubleValue
0.433

@<SCITEGIC>MOL_PROPERTY
VdW6
SciTegic.value.DoubleValue
-4.089

@<SCITEGIC>MOL_PROPERTY
VdW12
SciTegic.value.DoubleValue
4.522

@<SCITEGIC>MOL_PROPERTY
Bond
SciTegic.value.DoubleValue
0.131

@<SCITEGIC>MOL_PROPERTY
Angle
SciTegic.value.DoubleValue
0.628

@<SCITEGIC>MOL_PROPERTY
Pdih
SciTegic.value.DoubleValue
1.047

@<SCITEGIC>MOL_PROPERTY
Idih
SciTegic.value.DoubleValue
0.000

@<SCITEGIC>MOL_PROPERTY
Tether
SciTegic.value.DoubleValue
0.000

@<TRIPOS>MOLECULE
guest-s11_confgen4.mol2 : confsearch ligand conformer 420
          20          19           1
SMALL
USER_CHARGES
 
@<TRIPOS>ATOM
       1    N1      18.385438   19.047318   24.594900 N.4        1 MOL1        -0.5919
       2    H1      17.793069   18.535666   25.257330 H          1 MOL1         0.3682
       3    H2      19.287521   19.197312   25.056079 H          1 MOL1         0.3682
       4    H3      17.956382   19.968407   24.461861 H          1 MOL1         0.3682
       5    C1      18.538127   18.300558   23.283717 C.3        1 MOL1         0.0252
       6    H4      17.536238   18.140587   22.876007 H          1 MOL1         0.0971
       7    H5      18.977549   17.322687   23.498470 H          1 MOL1         0.0971
       8    C2      19.400287   19.038903   22.240934 C.3        1 MOL1        -0.1369
       9    H6      19.348954   18.476656   21.300269 H          1 MOL1         0.0997
      10    H7      18.966245   20.027369   22.040357 H          1 MOL1         0.0997
      11    C3      20.878151   19.186700   22.682737 C.3        1 MOL1        -0.1329
      12    H8      21.312360   18.192886   22.859556 H          1 MOL1         0.0997
      13    H9      20.921290   19.717888   23.642729 H          1 MOL1         0.0997
      14    C4      21.751907   19.958519   21.663998 C.3        1 MOL1        -0.1305
      15    H10     21.329250   20.958684   21.494009 H          1 MOL1         0.0997
      16    H11     22.747165   20.116789   22.102577 H          1 MOL1         0.0997
      17    C5      21.915708   19.226359   20.312379 C.3        1 MOL1        -0.2320
      18    H12     20.962797   19.153728   19.773904 H          1 MOL1         0.1008
      19    H13     22.618401   19.767391   19.665498 H          1 MOL1         0.1008
      20    H14     22.307692   18.211343   20.457617 H          1 MOL1         0.1008
@<TRIPOS>BOND
    1     1     2    1
    2     1     3    1
    3     1     4    1
    4     1     5    1
    5     5     6    1
    6     5     7    1
    7     5     8    1
    8     8     9    1
    9     8    10    1
   10     8    11    1
   11    11    12    1
   12    11    13    1
   13    11    14    1
   14    14    15    1
   15    14    16    1
   16    14    17    1
   17    17    18    1
   18    17    19    1
   19    17    20    1
@<TRIPOS>SUBSTRUCTURE
       1 MOL1            1 RESIDUE      1      MOL     
@<SCITEGIC>MOL_PROPERTY
VConf Rank
SciTegic.value.IntegerValue
420

@<SCITEGIC>MOL_PROPERTY
Conf_Id
SciTegic.value.IntegerValue
33

@<SCITEGIC>MOL_PROPERTY
Delta U+W
SciTegic.value.DoubleValue
0.703

@<SCITEGIC>MOL_PROPERTY
U+W
SciTegic.value.DoubleValue
-11.075

@<SCITEGIC>MOL_PROPERTY
Grad RMS
SciTegic.value.DoubleValue
0.000000

@<SCITEGIC>MOL_PROPERTY
U
SciTegic.value.DoubleValue
47.080

@<SCITEGIC>MOL_PROPERTY
W
SciTegic.value.DoubleValue
-58.154

@<SCITEGIC>MOL_PROPERTY
W(PB)
SciTegic.value.DoubleValue
-60.053

@<SCITEGIC>MOL_PROPERTY
W(SA)
SciTegic.value.DoubleValue
1.899

@<SCITEGIC>MOL_PROPERTY
Valence
SciTegic.value.DoubleValue
1.943

@<SCITEGIC>MOL_PROPERTY
Coulomb
SciTegic.value.DoubleValue
44.572

@<SCITEGIC>MOL_PROPERTY
VdW
SciTegic.value.DoubleValue
0.565

@<SCITEGIC>MOL_PROPERTY
VdW6
SciTegic.value.DoubleValue
-4.575

@<SCITEGIC>MOL_PROPERTY
VdW12
SciTegic.value.DoubleValue
5.139

@<SCITEGIC>MOL_PROPERTY
Bond
SciTegic.value.DoubleValue
0.158

@<SCITEGIC>MOL_PROPERTY
Angle
SciTegic.value.DoubleValue
0.700

@<SCITEGIC>MOL_PROPERTY
Pdih
SciTegic.value.DoubleValue
1.085

@<SCITEGIC>MOL_PROPERTY
Idih
SciTegic.value.DoubleValue
0.000

@<SCITEGIC>MOL_PROPERTY
Tether
SciTegic.value.DoubleValue
0.000

@<TRIPOS>MOLECULE
guest-s11_confgen4.mol2 : confsearch ligand conformer 421
          20          19           1
SMALL
USER_CHARGES
 
@<TRIPOS>ATOM
       1    N1      22.198193   20.869382   21.826074 N.4        1 MOL1        -0.5919
       2    H1      23.193996   21.098561   21.740328 H          1 MOL1         0.3682
       3    H2      21.703877   21.420062   21.117133 H          1 MOL1         0.3682
       4    H3      21.891750   21.210098   22.742012 H          1 MOL1         0.3682
       5    C1      21.946957   19.382627   21.662973 C.3        1 MOL1         0.0252
       6    H4      22.518454   18.854878   22.431293 H          1 MOL1         0.0971
       7    H5      22.337876   19.086763   20.685605 H          1 MOL1         0.0971
       8    C2      20.460511   18.986039   21.758139 C.3        1 MOL1        -0.1369
       9    H6      19.886501   19.530677   20.996841 H          1 MOL1         0.0997
      10    H7      20.378157   17.920377   21.510773 H          1 MOL1         0.0997
      11    C3      19.860611   19.245437   23.163112 C.3        1 MOL1        -0.1329
      12    H8      19.978495   20.306264   23.420717 H          1 MOL1         0.0997
      13    H9      20.425830   18.679666   23.916703 H          1 MOL1         0.0997
      14    C4      18.358060   18.887119   23.267635 C.3        1 MOL1        -0.1305
      15    H10     17.987857   19.205809   24.252180 H          1 MOL1         0.0997
      16    H11     17.786336   19.460814   22.524754 H          1 MOL1         0.0997
      17    C5      18.070219   17.378271   23.093596 C.3        1 MOL1        -0.2320
      18    H12     18.654398   16.779829   23.804656 H          1 MOL1         0.1008
      19    H13     17.007829   17.167177   23.271684 H          1 MOL1         0.1008
      20    H14     18.307545   17.035887   22.078844 H          1 MOL1         0.1008
@<TRIPOS>BOND
    1     1     2    1
    2     1     3    1
    3     1     4    1
    4     1     5    1
    5     5     6    1
    6     5     7    1
    7     5     8    1
    8     8     9    1
    9     8    10    1
   10     8    11    1
   11    11    12    1
   12    11    13    1
   13    11    14    1
   14    14    15    1
   15    14    16    1
   16    14    17    1
   17    17    18    1
   18    17    19    1
   19    17    20    1
@<TRIPOS>SUBSTRUCTURE
       1 MOL1            1 RESIDUE      1      MOL     
@<SCITEGIC>MOL_PROPERTY
VConf Rank
SciTegic.value.IntegerValue
421

@<SCITEGIC>MOL_PROPERTY
Conf_Id
SciTegic.value.IntegerValue
24

@<SCITEGIC>MOL_PROPERTY
Delta U+W
SciTegic.value.DoubleValue
0.847

@<SCITEGIC>MOL_PROPERTY
U+W
SciTegic.value.DoubleValue
-10.931

@<SCITEGIC>MOL_PROPERTY
Grad RMS
SciTegic.value.DoubleValue
0.000000

@<SCITEGIC>MOL_PROPERTY
U
SciTegic.value.DoubleValue
47.080

@<SCITEGIC>MOL_PROPERTY
W
SciTegic.value.DoubleValue
-58.011

@<SCITEGIC>MOL_PROPERTY
W(PB)
SciTegic.value.DoubleValue
-59.914

@<SCITEGIC>MOL_PROPERTY
W(SA)
SciTegic.value.DoubleValue
1.903

@<SCITEGIC>MOL_PROPERTY
Valence
SciTegic.value.DoubleValue
1.943

@<SCITEGIC>MOL_PROPERTY
Coulomb
SciTegic.value.DoubleValue
44.572

@<SCITEGIC>MOL_PROPERTY
VdW
SciTegic.value.DoubleValue
0.565

@<SCITEGIC>MOL_PROPERTY
VdW6
SciTegic.value.DoubleValue
-4.575

@<SCITEGIC>MOL_PROPERTY
VdW12
SciTegic.value.DoubleValue
5.140

@<SCITEGIC>MOL_PROPERTY
Bond
SciTegic.value.DoubleValue
0.158

@<SCITEGIC>MOL_PROPERTY
Angle
SciTegic.value.DoubleValue
0.700

@<SCITEGIC>MOL_PROPERTY
Pdih
SciTegic.value.DoubleValue
1.085

@<SCITEGIC>MOL_PROPERTY
Idih
SciTegic.value.DoubleValue
0.000

@<SCITEGIC>MOL_PROPERTY
Tether
SciTegic.value.DoubleValue
0.000

@<TRIPOS>MOLECULE
guest-s11_confgen4.mol2 : confsearch ligand conformer 422
          20          19           1
SMALL
USER_CHARGES
 
@<TRIPOS>ATOM
       1    N1      22.084865   17.277080   22.441974 N.4        1 MOL1        -0.5919
       2    H1      22.782034   17.119927   21.706619 H          1 MOL1         0.3682
       3    H2      22.575244   17.715489   23.227816 H          1 MOL1         0.3682
       4    H3      21.773868   16.353304   22.758560 H          1 MOL1         0.3682
       5    C1      20.929545   18.125689   21.950620 C.3        1 MOL1         0.0252
       6    H4      20.473252   17.614769   21.098484 H          1 MOL1         0.0971
       7    H5      21.336999   19.078476   21.602536 H          1 MOL1         0.0971
       8    C2      19.863420   18.381501   23.032545 C.3        1 MOL1        -0.1369
       9    H6      19.490977   17.417804   23.404479 H          1 MOL1         0.0997
      10    H7      20.322342   18.886199   23.892268 H          1 MOL1         0.0997
      11    C3      18.664830   19.211512   22.508658 C.3        1 MOL1        -0.1329
      12    H8      17.940807   19.345601   23.324179 H          1 MOL1         0.0997
      13    H9      18.142730   18.633684   21.733403 H          1 MOL1         0.0997
      14    C4      19.038320   20.599966   21.929068 C.3        1 MOL1        -0.1305
      15    H10     19.679223   20.482254   21.044667 H          1 MOL1         0.0997
      16    H11     18.120834   21.089060   21.572858 H          1 MOL1         0.0997
      17    C5      19.731125   21.527296   22.953319 C.3        1 MOL1        -0.2320
      18    H12     19.889404   22.524769   22.523321 H          1 MOL1         0.1008
      19    H13     19.119009   21.644795   23.856913 H          1 MOL1         0.1008
      20    H14     20.712453   21.137116   23.250627 H          1 MOL1         0.1008
@<TRIPOS>BOND
    1     1     2    1
    2     1     3    1
    3     1     4    1
    4     1     5    1
    5     5     6    1
    6     5     7    1
    7     5     8    1
    8     8     9    1
    9     8    10    1
   10     8    11    1
   11    11    12    1
   12    11    13    1
   13    11    14    1
   14    14    15    1
   15    14    16    1
   16    14    17    1
   17    17    18    1
   18    17    19    1
   19    17    20    1
@<TRIPOS>SUBSTRUCTURE
       1 MOL1            1 RESIDUE      1      MOL     
@<SCITEGIC>MOL_PROPERTY
VConf Rank
SciTegic.value.IntegerValue
422

@<SCITEGIC>MOL_PROPERTY
Conf_Id
SciTegic.value.IntegerValue
64

@<SCITEGIC>MOL_PROPERTY
Delta U+W
SciTegic.value.DoubleValue
0.707

@<SCITEGIC>MOL_PROPERTY
U+W
SciTegic.value.DoubleValue
-11.070

@<SCITEGIC>MOL_PROPERTY
Grad RMS
SciTegic.value.DoubleValue
0.000000

@<SCITEGIC>MOL_PROPERTY
U
SciTegic.value.DoubleValue
47.077

@<SCITEGIC>MOL_PROPERTY
W
SciTegic.value.DoubleValue
-58.148

@<SCITEGIC>MOL_PROPERTY
W(PB)
SciTegic.value.DoubleValue
-60.054

@<SCITEGIC>MOL_PROPERTY
W(SA)
SciTegic.value.DoubleValue
1.906

@<SCITEGIC>MOL_PROPERTY
Valence
SciTegic.value.DoubleValue
2.039

@<SCITEGIC>MOL_PROPERTY
Coulomb
SciTegic.value.DoubleValue
44.655

@<SCITEGIC>MOL_PROPERTY
VdW
SciTegic.value.DoubleValue
0.383

@<SCITEGIC>MOL_PROPERTY
VdW6
SciTegic.value.DoubleValue
-4.912

@<SCITEGIC>MOL_PROPERTY
VdW12
SciTegic.value.DoubleValue
5.295

@<SCITEGIC>MOL_PROPERTY
Bond
SciTegic.value.DoubleValue
0.159

@<SCITEGIC>MOL_PROPERTY
Angle
SciTegic.value.DoubleValue
0.856

@<SCITEGIC>MOL_PROPERTY
Pdih
SciTegic.value.DoubleValue
1.024

@<SCITEGIC>MOL_PROPERTY
Idih
SciTegic.value.DoubleValue
0.000

@<SCITEGIC>MOL_PROPERTY
Tether
SciTegic.value.DoubleValue
0.000

@<TRIPOS>MOLECULE
guest-s11_confgen4.mol2 : confsearch ligand conformer 423
          20          19           1
SMALL
USER_CHARGES
 
@<TRIPOS>ATOM
       1    N1      18.801555   18.116945   24.655558 N.4        1 MOL1        -0.5919
       2    H1      18.325178   17.224037   24.494035 H          1 MOL1         0.3682
       3    H2      19.669588   17.908529   25.158850 H          1 MOL1         0.3682
       4    H3      18.209704   18.658065   25.294612 H          1 MOL1         0.3682
       5    C1      19.061630   18.861974   23.361874 C.3        1 MOL1         0.0252
       6    H4      19.541058   19.811999   23.612047 H          1 MOL1         0.0971
       7    H5      18.096391   19.076098   22.895138 H          1 MOL1         0.0971
       8    C2      19.949254   18.075836   22.378648 C.3        1 MOL1        -0.1369
       9    H6      20.915083   17.852402   22.849505 H          1 MOL1         0.0997
      10    H7      19.478886   17.106521   22.166655 H          1 MOL1         0.0997
      11    C3      20.172472   18.825637   21.041498 C.3        1 MOL1        -0.1329
      12    H8      19.207905   18.928910   20.525322 H          1 MOL1         0.0997
      13    H9      20.800632   18.206351   20.386394 H          1 MOL1         0.0997
      14    C4      20.815782   20.229102   21.181723 C.3        1 MOL1        -0.1305
      15    H10     20.909145   20.673126   20.180719 H          1 MOL1         0.0997
      16    H11     20.150731   20.896878   21.746133 H          1 MOL1         0.0997
      17    C5      22.211032   20.201973   21.846215 C.3        1 MOL1        -0.2320
      18    H12     22.889740   19.524484   21.312043 H          1 MOL1         0.1008
      19    H13     22.660755   21.203257   21.837044 H          1 MOL1         0.1008
      20    H14     22.152696   19.876510   22.892307 H          1 MOL1         0.1008
@<TRIPOS>BOND
    1     1     2    1
    2     1     3    1
    3     1     4    1
    4     1     5    1
    5     5     6    1
    6     5     7    1
    7     5     8    1
    8     8     9    1
    9     8    10    1
   10     8    11    1
   11    11    12    1
   12    11    13    1
   13    11    14    1
   14    14    15    1
   15    14    16    1
   16    14    17    1
   17    17    18    1
   18    17    19    1
   19    17    20    1
@<TRIPOS>SUBSTRUCTURE
       1 MOL1            1 RESIDUE      1      MOL     
@<SCITEGIC>MOL_PROPERTY
VConf Rank
SciTegic.value.IntegerValue
423

@<SCITEGIC>MOL_PROPERTY
Conf_Id
SciTegic.value.IntegerValue
22

@<SCITEGIC>MOL_PROPERTY
Delta U+W
SciTegic.value.DoubleValue
0.731

@<SCITEGIC>MOL_PROPERTY
U+W
SciTegic.value.DoubleValue
-11.047

@<SCITEGIC>MOL_PROPERTY
Grad RMS
SciTegic.value.DoubleValue
0.000000

@<SCITEGIC>MOL_PROPERTY
U
SciTegic.value.DoubleValue
47.078

@<SCITEGIC>MOL_PROPERTY
W
SciTegic.value.DoubleValue
-58.125

@<SCITEGIC>MOL_PROPERTY
W(PB)
SciTegic.value.DoubleValue
-60.031

@<SCITEGIC>MOL_PROPERTY
W(SA)
SciTegic.value.DoubleValue
1.906

@<SCITEGIC>MOL_PROPERTY
Valence
SciTegic.value.DoubleValue
2.039

@<SCITEGIC>MOL_PROPERTY
Coulomb
SciTegic.value.DoubleValue
44.655

@<SCITEGIC>MOL_PROPERTY
VdW
SciTegic.value.DoubleValue
0.383

@<SCITEGIC>MOL_PROPERTY
VdW6
SciTegic.value.DoubleValue
-4.913

@<SCITEGIC>MOL_PROPERTY
VdW12
SciTegic.value.DoubleValue
5.296

@<SCITEGIC>MOL_PROPERTY
Bond
SciTegic.value.DoubleValue
0.159

@<SCITEGIC>MOL_PROPERTY
Angle
SciTegic.value.DoubleValue
0.856

@<SCITEGIC>MOL_PROPERTY
Pdih
SciTegic.value.DoubleValue
1.024

@<SCITEGIC>MOL_PROPERTY
Idih
SciTegic.value.DoubleValue
0.000

@<SCITEGIC>MOL_PROPERTY
Tether
SciTegic.value.DoubleValue
0.000

@<TRIPOS>MOLECULE
guest-s11_confgen4.mol2 : confsearch ligand conformer 424
          20          19           1
SMALL
USER_CHARGES
 
@<TRIPOS>ATOM
       1    N1      22.487222   18.111127   23.496198 N.4        1 MOL1        -0.5919
       2    H1      22.763251   18.804393   24.198712 H          1 MOL1         0.3682
       3    H2      22.330731   17.227236   23.990725 H          1 MOL1         0.3682
       4    H3      23.297402   17.969450   22.883802 H          1 MOL1         0.3682
       5    C1      21.262711   18.549525   22.718386 C.3        1 MOL1         0.0252
       6    H4      21.042297   17.780794   21.972821 H          1 MOL1         0.0971
       7    H5      21.514691   19.476441   22.198193 H          1 MOL1         0.0971
       8    C2      20.029436   18.776322   23.610723 C.3        1 MOL1        -0.1369
       9    H6      19.861139   17.875576   24.215914 H          1 MOL1         0.0997
      10    H7      20.234735   19.590890   24.317913 H          1 MOL1         0.0997
      11    C3      18.731896   19.086782   22.822106 C.3        1 MOL1        -0.1329
      12    H8      17.908854   19.137801   23.548432 H          1 MOL1         0.0997
      13    H9      18.485713   18.250448   22.153310 H          1 MOL1         0.0997
      14    C4      18.753060   20.418829   22.028132 C.3        1 MOL1        -0.1305
      15    H10     17.721307   20.789437   21.949147 H          1 MOL1         0.0997
      16    H11     19.307161   21.186570   22.586062 H          1 MOL1         0.0997
      17    C5      19.317951   20.285186   20.594300 C.3        1 MOL1        -0.2320
      18    H12     20.376657   20.005926   20.588772 H          1 MOL1         0.1008
      19    H13     18.763498   19.530625   20.021393 H          1 MOL1         0.1008
      20    H14     19.228896   21.239254   20.058755 H          1 MOL1         0.1008
@<TRIPOS>BOND
    1     1     2    1
    2     1     3    1
    3     1     4    1
    4     1     5    1
    5     5     6    1
    6     5     7    1
    7     5     8    1
    8     8     9    1
    9     8    10    1
   10     8    11    1
   11    11    12    1
   12    11    13    1
   13    11    14    1
   14    14    15    1
   15    14    16    1
   16    14    17    1
   17    17    18    1
   18    17    19    1
   19    17    20    1
@<TRIPOS>SUBSTRUCTURE
       1 MOL1            1 RESIDUE      1      MOL     
@<SCITEGIC>MOL_PROPERTY
VConf Rank
SciTegic.value.IntegerValue
424

@<SCITEGIC>MOL_PROPERTY
Conf_Id
SciTegic.value.IntegerValue
61

@<SCITEGIC>MOL_PROPERTY
Delta U+W
SciTegic.value.DoubleValue
2.669

@<SCITEGIC>MOL_PROPERTY
U+W
SciTegic.value.DoubleValue
-9.108

@<SCITEGIC>MOL_PROPERTY
Grad RMS
SciTegic.value.DoubleValue
0.000000

@<SCITEGIC>MOL_PROPERTY
U
SciTegic.value.DoubleValue
48.916

@<SCITEGIC>MOL_PROPERTY
W
SciTegic.value.DoubleValue
-58.025

@<SCITEGIC>MOL_PROPERTY
W(PB)
SciTegic.value.DoubleValue
-59.935

@<SCITEGIC>MOL_PROPERTY
W(SA)
SciTegic.value.DoubleValue
1.911

@<SCITEGIC>MOL_PROPERTY
Valence
SciTegic.value.DoubleValue
3.785

@<SCITEGIC>MOL_PROPERTY
Coulomb
SciTegic.value.DoubleValue
44.716

@<SCITEGIC>MOL_PROPERTY
VdW
SciTegic.value.DoubleValue
0.415

@<SCITEGIC>MOL_PROPERTY
VdW6
SciTegic.value.DoubleValue
-4.836

@<SCITEGIC>MOL_PROPERTY
VdW12
SciTegic.value.DoubleValue
5.251

@<SCITEGIC>MOL_PROPERTY
Bond
SciTegic.value.DoubleValue
0.175

@<SCITEGIC>MOL_PROPERTY
Angle
SciTegic.value.DoubleValue
1.195

@<SCITEGIC>MOL_PROPERTY
Pdih
SciTegic.value.DoubleValue
2.415

@<SCITEGIC>MOL_PROPERTY
Idih
SciTegic.value.DoubleValue
0.000

@<SCITEGIC>MOL_PROPERTY
Tether
SciTegic.value.DoubleValue
0.000

@<TRIPOS>MOLECULE
guest-s11_confgen4.mol2 : confsearch ligand conformer 425
          20          19           1
SMALL
USER_CHARGES
 
@<TRIPOS>ATOM
       1    N1      18.419656   19.624089   23.835695 N.4        1 MOL1        -0.5919
       2    H1      17.400664   19.661975   23.944604 H          1 MOL1         0.3682
       3    H2      18.823043   20.082203   24.658927 H          1 MOL1         0.3682
       4    H3      18.656671   20.199401   23.023374 H          1 MOL1         0.3682
       5    C1      18.915879   18.198693   23.685433 C.3        1 MOL1         0.0252
       6    H4      18.411282   17.742148   22.829696 H          1 MOL1         0.0971
       7    H5      18.609555   17.658847   24.585595 H          1 MOL1         0.0971
       8    C2      20.445014   18.071214   23.521207 C.3        1 MOL1        -0.1369
       9    H6      20.956307   18.749029   24.217598 H          1 MOL1         0.0997
      10    H7      20.729758   17.055602   23.826699 H          1 MOL1         0.0997
      11    C3      20.958951   18.293278   22.075411 C.3        1 MOL1        -0.1329
      12    H8      20.480904   17.568752   21.401615 H          1 MOL1         0.0997
      13    H9      22.033657   18.064997   22.056042 H          1 MOL1         0.0997
      14    C4      20.742847   19.724644   21.530617 C.3        1 MOL1        -0.1305
      15    H10     19.671056   19.919258   21.399316 H          1 MOL1         0.0997
      16    H11     21.123685   20.460826   22.252380 H          1 MOL1         0.0997
      17    C5      21.449134   19.928828   20.173235 C.3        1 MOL1        -0.2320
      18    H12     21.278140   20.945472   19.796078 H          1 MOL1         0.1008
      19    H13     22.533292   19.782722   20.265305 H          1 MOL1         0.1008
      20    H14     21.071801   19.223051   19.421724 H          1 MOL1         0.1008
@<TRIPOS>BOND
    1     1     2    1
    2     1     3    1
    3     1     4    1
    4     1     5    1
    5     5     6    1
    6     5     7    1
    7     5     8    1
    8     8     9    1
    9     8    10    1
   10     8    11    1
   11    11    12    1
   12    11    13    1
   13    11    14    1
   14    14    15    1
   15    14    16    1
   16    14    17    1
   17    17    18    1
   18    17    19    1
   19    17    20    1
@<TRIPOS>SUBSTRUCTURE
       1 MOL1            1 RESIDUE      1      MOL     
@<SCITEGIC>MOL_PROPERTY
VConf Rank
SciTegic.value.IntegerValue
425

@<SCITEGIC>MOL_PROPERTY
Conf_Id
SciTegic.value.IntegerValue
69

@<SCITEGIC>MOL_PROPERTY
Delta U+W
SciTegic.value.DoubleValue
2.811

@<SCITEGIC>MOL_PROPERTY
U+W
SciTegic.value.DoubleValue
-8.967

@<SCITEGIC>MOL_PROPERTY
Grad RMS
SciTegic.value.DoubleValue
0.000000

@<SCITEGIC>MOL_PROPERTY
U
SciTegic.value.DoubleValue
49.216

@<SCITEGIC>MOL_PROPERTY
W
SciTegic.value.DoubleValue
-58.183

@<SCITEGIC>MOL_PROPERTY
W(PB)
SciTegic.value.DoubleValue
-60.064

@<SCITEGIC>MOL_PROPERTY
W(SA)
SciTegic.value.DoubleValue
1.881

@<SCITEGIC>MOL_PROPERTY
Valence
SciTegic.value.DoubleValue
2.929

@<SCITEGIC>MOL_PROPERTY
Coulomb
SciTegic.value.DoubleValue
46.006

@<SCITEGIC>MOL_PROPERTY
VdW
SciTegic.value.DoubleValue
0.281

@<SCITEGIC>MOL_PROPERTY
VdW6
SciTegic.value.DoubleValue
-4.909

@<SCITEGIC>MOL_PROPERTY
VdW12
SciTegic.value.DoubleValue
5.190

@<SCITEGIC>MOL_PROPERTY
Bond
SciTegic.value.DoubleValue
0.156

@<SCITEGIC>MOL_PROPERTY
Angle
SciTegic.value.DoubleValue
0.974

@<SCITEGIC>MOL_PROPERTY
Pdih
SciTegic.value.DoubleValue
1.799

@<SCITEGIC>MOL_PROPERTY
Idih
SciTegic.value.DoubleValue
0.000

@<SCITEGIC>MOL_PROPERTY
Tether
SciTegic.value.DoubleValue
0.000

@<TRIPOS>MOLECULE
guest-s11_confgen4.mol2 : confsearch ligand conformer 426
          20          19           1
SMALL
USER_CHARGES
 
@<TRIPOS>ATOM
       1    N1      20.366636   18.482927   20.253496 N.4        1 MOL1        -0.5919
       2    H1      20.362258   17.812720   21.026692 H          1 MOL1         0.3682
       3    H2      19.444632   18.437322   19.808375 H          1 MOL1         0.3682
       4    H3      21.045889   18.143305   19.564356 H          1 MOL1         0.3682
       5    C1      20.696236   19.887332   20.722088 C.3        1 MOL1         0.0252
       6    H4      20.690958   20.527655   19.835795 H          1 MOL1         0.0971
       7    H5      21.709059   19.888890   21.133824 H          1 MOL1         0.0971
       8    C2      19.707962   20.460345   21.759609 C.3        1 MOL1        -0.1369
       9    H6      19.780275   21.555360   21.719817 H          1 MOL1         0.0997
      10    H7      18.676640   20.216571   21.471921 H          1 MOL1         0.0997
      11    C3      19.979947   20.019822   23.221024 C.3        1 MOL1        -0.1329
      12    H8      19.295791   20.574611   23.878001 H          1 MOL1         0.0997
      13    H9      20.995278   20.323102   23.511865 H          1 MOL1         0.0997
      14    C4      19.800522   18.505261   23.478364 C.3        1 MOL1        -0.1305
      15    H10     18.827046   18.173016   23.091192 H          1 MOL1         0.0997
      16    H11     20.574991   17.938981   22.946033 H          1 MOL1         0.0997
      17    C5      19.892693   18.169435   24.982273 C.3        1 MOL1        -0.2320
      18    H12     19.108371   18.685011   25.551695 H          1 MOL1         0.1008
      19    H13     19.773100   17.090704   25.146860 H          1 MOL1         0.1008
      20    H14     20.865791   18.467014   25.394337 H          1 MOL1         0.1008
@<TRIPOS>BOND
    1     1     2    1
    2     1     3    1
    3     1     4    1
    4     1     5    1
    5     5     6    1
    6     5     7    1
    7     5     8    1
    8     8     9    1
    9     8    10    1
   10     8    11    1
   11    11    12    1
   12    11    13    1
   13    11    14    1
   14    14    15    1
   15    14    16    1
   16    14    17    1
   17    17    18    1
   18    17    19    1
   19    17    20    1
@<TRIPOS>SUBSTRUCTURE
       1 MOL1            1 RESIDUE      1      MOL     
@<SCITEGIC>MOL_PROPERTY
VConf Rank
SciTegic.value.IntegerValue
426

@<SCITEGIC>MOL_PROPERTY
Conf_Id
SciTegic.value.IntegerValue
26

@<SCITEGIC>MOL_PROPERTY
Delta U+W
SciTegic.value.DoubleValue
2.809

@<SCITEGIC>MOL_PROPERTY
U+W
SciTegic.value.DoubleValue
-8.969

@<SCITEGIC>MOL_PROPERTY
Grad RMS
SciTegic.value.DoubleValue
0.000000

@<SCITEGIC>MOL_PROPERTY
U
SciTegic.value.DoubleValue
49.216

@<SCITEGIC>MOL_PROPERTY
W
SciTegic.value.DoubleValue
-58.185

@<SCITEGIC>MOL_PROPERTY
W(PB)
SciTegic.value.DoubleValue
-60.088

@<SCITEGIC>MOL_PROPERTY
W(SA)
SciTegic.value.DoubleValue
1.903

@<SCITEGIC>MOL_PROPERTY
Valence
SciTegic.value.DoubleValue
2.929

@<SCITEGIC>MOL_PROPERTY
Coulomb
SciTegic.value.DoubleValue
46.006

@<SCITEGIC>MOL_PROPERTY
VdW
SciTegic.value.DoubleValue
0.281

@<SCITEGIC>MOL_PROPERTY
VdW6
SciTegic.value.DoubleValue
-4.909

@<SCITEGIC>MOL_PROPERTY
VdW12
SciTegic.value.DoubleValue
5.190

@<SCITEGIC>MOL_PROPERTY
Bond
SciTegic.value.DoubleValue
0.156

@<SCITEGIC>MOL_PROPERTY
Angle
SciTegic.value.DoubleValue
0.974

@<SCITEGIC>MOL_PROPERTY
Pdih
SciTegic.value.DoubleValue
1.799

@<SCITEGIC>MOL_PROPERTY
Idih
SciTegic.value.DoubleValue
0.000

@<SCITEGIC>MOL_PROPERTY
Tether
SciTegic.value.DoubleValue
0.000

@<TRIPOS>MOLECULE
guest-s11_confgen4.mol2 : confsearch ligand conformer 427
          20          19           1
SMALL
USER_CHARGES
 
@<TRIPOS>ATOM
       1    N1      19.094779   19.639876   20.326163 N.4        1 MOL1        -0.5919
       2    H1      19.176560   20.532217   20.822124 H          1 MOL1         0.3682
       3    H2      19.710306   19.690421   19.508478 H          1 MOL1         0.3682
       4    H3      18.134051   19.578988   19.973170 H          1 MOL1         0.3682
       5    C1      19.441961   18.466485   21.221493 C.3        1 MOL1         0.0252
       6    H4      19.303575   17.551204   20.639584 H          1 MOL1         0.0971
       7    H5      18.731425   18.450729   22.052049 H          1 MOL1         0.0971
       8    C2      20.882406   18.510932   21.770525 C.3        1 MOL1        -0.1369
       9    H6      21.072110   17.592643   22.340866 H          1 MOL1         0.0997
      10    H7      21.588129   18.492111   20.929550 H          1 MOL1         0.0997
      11    C3      21.180500   19.746999   22.659499 C.3        1 MOL1        -0.1329
      12    H8      21.148637   20.654822   22.042207 H          1 MOL1         0.0997
      13    H9      22.212660   19.675763   23.029323 H          1 MOL1         0.0997
      14    C4      20.223671   19.926337   23.865876 C.3        1 MOL1        -0.1305
      15    H10     20.511181   20.837472   24.409034 H          1 MOL1         0.0997
      16    H11     19.196749   20.096070   23.514993 H          1 MOL1         0.0997
      17    C5      20.245781   18.733480   24.848447 C.3        1 MOL1        -0.2320
      18    H12     21.265302   18.532009   25.201930 H          1 MOL1         0.1008
      19    H13     19.622377   18.946830   25.726362 H          1 MOL1         0.1008
      20    H14     19.856710   17.820006   24.381767 H          1 MOL1         0.1008
@<TRIPOS>BOND
    1     1     2    1
    2     1     3    1
    3     1     4    1
    4     1     5    1
    5     5     6    1
    6     5     7    1
    7     5     8    1
    8     8     9    1
    9     8    10    1
   10     8    11    1
   11    11    12    1
   12    11    13    1
   13    11    14    1
   14    14    15    1
   15    14    16    1
   16    14    17    1
   17    17    18    1
   18    17    19    1
   19    17    20    1
@<TRIPOS>SUBSTRUCTURE
       1 MOL1            1 RESIDUE      1      MOL     
@<SCITEGIC>MOL_PROPERTY
VConf Rank
SciTegic.value.IntegerValue
427

@<SCITEGIC>MOL_PROPERTY
Conf_Id
SciTegic.value.IntegerValue
2

@<SCITEGIC>MOL_PROPERTY
Delta U+W
SciTegic.value.DoubleValue
0.994

@<SCITEGIC>MOL_PROPERTY
U+W
SciTegic.value.DoubleValue
-10.784

@<SCITEGIC>MOL_PROPERTY
Grad RMS
SciTegic.value.DoubleValue
0.000000

@<SCITEGIC>MOL_PROPERTY
U
SciTegic.value.DoubleValue
47.562

@<SCITEGIC>MOL_PROPERTY
W
SciTegic.value.DoubleValue
-58.346

@<SCITEGIC>MOL_PROPERTY
W(PB)
SciTegic.value.DoubleValue
-60.221

@<SCITEGIC>MOL_PROPERTY
W(SA)
SciTegic.value.DoubleValue
1.875

@<SCITEGIC>MOL_PROPERTY
Valence
SciTegic.value.DoubleValue
2.149

@<SCITEGIC>MOL_PROPERTY
Coulomb
SciTegic.value.DoubleValue
45.034

@<SCITEGIC>MOL_PROPERTY
VdW
SciTegic.value.DoubleValue
0.378

@<SCITEGIC>MOL_PROPERTY
VdW6
SciTegic.value.DoubleValue
-5.599

@<SCITEGIC>MOL_PROPERTY
VdW12
SciTegic.value.DoubleValue
5.977

@<SCITEGIC>MOL_PROPERTY
Bond
SciTegic.value.DoubleValue
0.185

@<SCITEGIC>MOL_PROPERTY
Angle
SciTegic.value.DoubleValue
0.935

@<SCITEGIC>MOL_PROPERTY
Pdih
SciTegic.value.DoubleValue
1.028

@<SCITEGIC>MOL_PROPERTY
Idih
SciTegic.value.DoubleValue
0.000

@<SCITEGIC>MOL_PROPERTY
Tether
SciTegic.value.DoubleValue
0.000

@<TRIPOS>MOLECULE
guest-s11_confgen4.mol2 : confsearch ligand conformer 428
          20          19           1
SMALL
USER_CHARGES
 
@<TRIPOS>ATOM
       1    N1      22.558784   18.825396   22.157155 N.4        1 MOL1        -0.5919
       2    H1      22.937957   19.039047   21.229459 H          1 MOL1         0.3682
       3    H2      22.411162   19.718242   22.636710 H          1 MOL1         0.3682
       4    H3      23.291703   18.325528   22.671227 H          1 MOL1         0.3682
       5    C1      21.279121   18.016711   22.070614 C.3        1 MOL1         0.0252
       6    H4      20.947216   17.795645   23.088406 H          1 MOL1         0.0971
       7    H5      21.516281   17.069729   21.578184 H          1 MOL1         0.0971
       8    C2      20.148770   18.726279   21.297888 C.3        1 MOL1        -0.1369
       9    H6      20.480045   18.913040   20.267832 H          1 MOL1         0.0997
      10    H7      19.292691   18.044189   21.217793 H          1 MOL1         0.0997
      11    C3      19.690939   20.063649   21.937281 C.3        1 MOL1        -0.1329
      12    H8      18.865981   20.476595   21.340524 H          1 MOL1         0.0997
      13    H9      20.504717   20.797775   21.866350 H          1 MOL1         0.0997
      14    C4      19.239160   19.956272   23.416268 C.3        1 MOL1        -0.1305
      15    H10     20.078698   19.636437   24.048231 H          1 MOL1         0.0997
      16    H11     18.959293   20.958102   23.771036 H          1 MOL1         0.0997
      17    C5      18.040883   19.002320   23.623504 C.3        1 MOL1        -0.2320
      18    H12     18.307522   17.964093   23.389856 H          1 MOL1         0.1008
      19    H13     17.703887   19.029469   24.667814 H          1 MOL1         0.1008
      20    H14     17.192401   19.290759   22.989594 H          1 MOL1         0.1008
@<TRIPOS>BOND
    1     1     2    1
    2     1     3    1
    3     1     4    1
    4     1     5    1
    5     5     6    1
    6     5     7    1
    7     5     8    1
    8     8     9    1
    9     8    10    1
   10     8    11    1
   11    11    12    1
   12    11    13    1
   13    11    14    1
   14    14    15    1
   15    14    16    1
   16    14    17    1
   17    17    18    1
   18    17    19    1
   19    17    20    1
@<TRIPOS>SUBSTRUCTURE
       1 MOL1            1 RESIDUE      1      MOL     
@<SCITEGIC>MOL_PROPERTY
VConf Rank
SciTegic.value.IntegerValue
428

@<SCITEGIC>MOL_PROPERTY
Conf_Id
SciTegic.value.IntegerValue
1

@<SCITEGIC>MOL_PROPERTY
Delta U+W
SciTegic.value.DoubleValue
1.032

@<SCITEGIC>MOL_PROPERTY
U+W
SciTegic.value.DoubleValue
-10.746

@<SCITEGIC>MOL_PROPERTY
Grad RMS
SciTegic.value.DoubleValue
0.000000

@<SCITEGIC>MOL_PROPERTY
U
SciTegic.value.DoubleValue
47.562

@<SCITEGIC>MOL_PROPERTY
W
SciTegic.value.DoubleValue
-58.308

@<SCITEGIC>MOL_PROPERTY
W(PB)
SciTegic.value.DoubleValue
-60.184

@<SCITEGIC>MOL_PROPERTY
W(SA)
SciTegic.value.DoubleValue
1.877

@<SCITEGIC>MOL_PROPERTY
Valence
SciTegic.value.DoubleValue
2.149

@<SCITEGIC>MOL_PROPERTY
Coulomb
SciTegic.value.DoubleValue
45.035

@<SCITEGIC>MOL_PROPERTY
VdW
SciTegic.value.DoubleValue
0.378

@<SCITEGIC>MOL_PROPERTY
VdW6
SciTegic.value.DoubleValue
-5.599

@<SCITEGIC>MOL_PROPERTY
VdW12
SciTegic.value.DoubleValue
5.978

@<SCITEGIC>MOL_PROPERTY
Bond
SciTegic.value.DoubleValue
0.185

@<SCITEGIC>MOL_PROPERTY
Angle
SciTegic.value.DoubleValue
0.935

@<SCITEGIC>MOL_PROPERTY
Pdih
SciTegic.value.DoubleValue
1.028

@<SCITEGIC>MOL_PROPERTY
Idih
SciTegic.value.DoubleValue
0.000

@<SCITEGIC>MOL_PROPERTY
Tether
SciTegic.value.DoubleValue
0.000

@<TRIPOS>MOLECULE
guest-s11_confgen4.mol2 : confsearch ligand conformer 429
          20          19           1
SMALL
USER_CHARGES
 
@<TRIPOS>ATOM
       1    N1      17.918832   19.389526   22.567521 N.4        1 MOL1        -0.5919
       2    H1      17.534718   20.210273   23.045978 H          1 MOL1         0.3682
       3    H2      18.243889   19.699954   21.647381 H          1 MOL1         0.3682
       4    H3      17.137483   18.745205   22.407243 H          1 MOL1         0.3682
       5    C1      19.030353   18.738474   23.367776 C.3        1 MOL1         0.0252
       6    H4      19.369689   17.859141   22.818099 H          1 MOL1         0.0971
       7    H5      18.598496   18.398020   24.312824 H          1 MOL1         0.0971
       8    C2      20.218338   19.678459   23.664146 C.3        1 MOL1        -0.1369
       9    H6      19.833970   20.551940   24.207389 H          1 MOL1         0.0997
      10    H7      20.914010   19.179549   24.351712 H          1 MOL1         0.0997
      11    C3      20.988853   20.167610   22.408216 C.3        1 MOL1        -0.1329
      12    H8      21.498303   21.105302   22.670166 H          1 MOL1         0.0997
      13    H9      20.290532   20.429910   21.603064 H          1 MOL1         0.0997
      14    C4      22.066754   19.188208   21.876300 C.3        1 MOL1        -0.1305
      15    H10     22.602127   19.680040   21.052028 H          1 MOL1         0.0997
      16    H11     22.817756   19.003803   22.657180 H          1 MOL1         0.0997
      17    C5      21.514347   17.838961   21.366093 C.3        1 MOL1        -0.2320
      18    H12     20.681173   17.987471   20.667147 H          1 MOL1         0.1008
      19    H13     22.298419   17.280303   20.838780 H          1 MOL1         0.1008
      20    H14     21.171246   17.208612   22.194946 H          1 MOL1         0.1008
@<TRIPOS>BOND
    1     1     2    1
    2     1     3    1
    3     1     4    1
    4     1     5    1
    5     5     6    1
    6     5     7    1
    7     5     8    1
    8     8     9    1
    9     8    10    1
   10     8    11    1
   11    11    12    1
   12    11    13    1
   13    11    14    1
   14    14    15    1
   15    14    16    1
   16    14    17    1
   17    17    18    1
   18    17    19    1
   19    17    20    1
@<TRIPOS>SUBSTRUCTURE
       1 MOL1            1 RESIDUE      1      MOL     
@<SCITEGIC>MOL_PROPERTY
VConf Rank
SciTegic.value.IntegerValue
429

@<SCITEGIC>MOL_PROPERTY
Conf_Id
SciTegic.value.IntegerValue
80

@<SCITEGIC>MOL_PROPERTY
Delta U+W
SciTegic.value.DoubleValue
2.920

@<SCITEGIC>MOL_PROPERTY
U+W
SciTegic.value.DoubleValue
-8.857

@<SCITEGIC>MOL_PROPERTY
Grad RMS
SciTegic.value.DoubleValue
0.000000

@<SCITEGIC>MOL_PROPERTY
U
SciTegic.value.DoubleValue
49.434

@<SCITEGIC>MOL_PROPERTY
W
SciTegic.value.DoubleValue
-58.292

@<SCITEGIC>MOL_PROPERTY
W(PB)
SciTegic.value.DoubleValue
-60.170

@<SCITEGIC>MOL_PROPERTY
W(SA)
SciTegic.value.DoubleValue
1.879

@<SCITEGIC>MOL_PROPERTY
Valence
SciTegic.value.DoubleValue
3.798

@<SCITEGIC>MOL_PROPERTY
Coulomb
SciTegic.value.DoubleValue
45.253

@<SCITEGIC>MOL_PROPERTY
VdW
SciTegic.value.DoubleValue
0.384

@<SCITEGIC>MOL_PROPERTY
VdW6
SciTegic.value.DoubleValue
-5.595

@<SCITEGIC>MOL_PROPERTY
VdW12
SciTegic.value.DoubleValue
5.979

@<SCITEGIC>MOL_PROPERTY
Bond
SciTegic.value.DoubleValue
0.198

@<SCITEGIC>MOL_PROPERTY
Angle
SciTegic.value.DoubleValue
1.368

@<SCITEGIC>MOL_PROPERTY
Pdih
SciTegic.value.DoubleValue
2.231

@<SCITEGIC>MOL_PROPERTY
Idih
SciTegic.value.DoubleValue
0.000

@<SCITEGIC>MOL_PROPERTY
Tether
SciTegic.value.DoubleValue
0.000

@<TRIPOS>MOLECULE
guest-s11_confgen4.mol2 : confsearch ligand conformer 430
          20          19           1
SMALL
USER_CHARGES
 
@<TRIPOS>ATOM
       1    N1      20.744528   19.507044   24.735155 N.4        1 MOL1        -0.5919
       2    H1      21.683869   19.250301   25.054233 H          1 MOL1         0.3682
       3    H2      20.314930   20.057709   25.485862 H          1 MOL1         0.3682
       4    H3      20.204969   18.640480   24.653727 H          1 MOL1         0.3682
       5    C1      20.782477   20.272403   23.426513 C.3        1 MOL1         0.0252
       6    H4      21.335826   21.198634   23.603785 H          1 MOL1         0.0971
       7    H5      19.757754   20.539148   23.163254 H          1 MOL1         0.0971
       8    C2      21.450116   19.497838   22.270211 C.3        1 MOL1        -0.1369
       9    H6      21.556053   20.161164   21.401652 H          1 MOL1         0.0997
      10    H7      22.472335   19.240853   22.578180 H          1 MOL1         0.0997
      11    C3      20.712139   18.199295   21.846533 C.3        1 MOL1        -0.1329
      12    H8      20.366210   17.644983   22.728458 H          1 MOL1         0.0997
      13    H9      21.443249   17.541602   21.356288 H          1 MOL1         0.0997
      14    C4      19.537305   18.405030   20.855836 C.3        1 MOL1        -0.1305
      15    H10     19.907811   18.874404   19.933776 H          1 MOL1         0.0997
      16    H11     19.158631   17.416352   20.560762 H          1 MOL1         0.0997
      17    C5      18.360368   19.233357   21.416748 C.3        1 MOL1        -0.2320
      18    H12     18.627748   20.292134   21.514470 H          1 MOL1         0.1008
      19    H13     17.498399   19.179293   20.739240 H          1 MOL1         0.1008
      20    H14     18.039812   18.858223   22.397196 H          1 MOL1         0.1008
@<TRIPOS>BOND
    1     1     2    1
    2     1     3    1
    3     1     4    1
    4     1     5    1
    5     5     6    1
    6     5     7    1
    7     5     8    1
    8     8     9    1
    9     8    10    1
   10     8    11    1
   11    11    12    1
   12    11    13    1
   13    11    14    1
   14    14    15    1
   15    14    16    1
   16    14    17    1
   17    17    18    1
   18    17    19    1
   19    17    20    1
@<TRIPOS>SUBSTRUCTURE
       1 MOL1            1 RESIDUE      1      MOL     
@<SCITEGIC>MOL_PROPERTY
VConf Rank
SciTegic.value.IntegerValue
430

@<SCITEGIC>MOL_PROPERTY
Conf_Id
SciTegic.value.IntegerValue
65

@<SCITEGIC>MOL_PROPERTY
Delta U+W
SciTegic.value.DoubleValue
2.949

@<SCITEGIC>MOL_PROPERTY
U+W
SciTegic.value.DoubleValue
-8.829

@<SCITEGIC>MOL_PROPERTY
Grad RMS
SciTegic.value.DoubleValue
0.000000

@<SCITEGIC>MOL_PROPERTY
U
SciTegic.value.DoubleValue
49.435

@<SCITEGIC>MOL_PROPERTY
W
SciTegic.value.DoubleValue
-58.263

@<SCITEGIC>MOL_PROPERTY
W(PB)
SciTegic.value.DoubleValue
-60.125

@<SCITEGIC>MOL_PROPERTY
W(SA)
SciTegic.value.DoubleValue
1.862

@<SCITEGIC>MOL_PROPERTY
Valence
SciTegic.value.DoubleValue
3.797

@<SCITEGIC>MOL_PROPERTY
Coulomb
SciTegic.value.DoubleValue
45.253

@<SCITEGIC>MOL_PROPERTY
VdW
SciTegic.value.DoubleValue
0.384

@<SCITEGIC>MOL_PROPERTY
VdW6
SciTegic.value.DoubleValue
-5.596

@<SCITEGIC>MOL_PROPERTY
VdW12
SciTegic.value.DoubleValue
5.980

@<SCITEGIC>MOL_PROPERTY
Bond
SciTegic.value.DoubleValue
0.198

@<SCITEGIC>MOL_PROPERTY
Angle
SciTegic.value.DoubleValue
1.369

@<SCITEGIC>MOL_PROPERTY
Pdih
SciTegic.value.DoubleValue
2.230

@<SCITEGIC>MOL_PROPERTY
Idih
SciTegic.value.DoubleValue
0.000

@<SCITEGIC>MOL_PROPERTY
Tether
SciTegic.value.DoubleValue
0.000

@<TRIPOS>MOLECULE
guest-s11_confgen4.mol2 : confsearch ligand conformer 431
          20          19           1
SMALL
USER_CHARGES
 
@<TRIPOS>ATOM
       1    N1      19.020628   18.109130   21.253620 N.4        1 MOL1        -0.5919
       2    H1      18.042131   17.813648   21.170463 H          1 MOL1         0.3682
       3    H2      19.039629   19.130385   21.173603 H          1 MOL1         0.3682
       4    H3      19.516461   17.730192   20.440625 H          1 MOL1         0.3682
       5    C1      19.640756   17.644935   22.557277 C.3        1 MOL1         0.0252
       6    H4      19.584965   16.553000   22.566554 H          1 MOL1         0.0971
       7    H5      19.037007   18.022385   23.386867 H          1 MOL1         0.0971
       8    C2      21.110287   18.075450   22.740430 C.3        1 MOL1        -0.1369
       9    H6      21.575405   17.380014   23.451658 H          1 MOL1         0.0997
      10    H7      21.656076   17.945877   21.796432 H          1 MOL1         0.0997
      11    C3      21.314796   19.515157   23.283829 C.3        1 MOL1        -0.1329
      12    H8      22.395272   19.665630   23.415940 H          1 MOL1         0.0997
      13    H9      20.881895   19.600579   24.290192 H          1 MOL1         0.0997
      14    C4      20.779717   20.652167   22.376405 C.3        1 MOL1        -0.1305
      15    H10     21.460112   21.511920   22.454792 H          1 MOL1         0.0997
      16    H11     20.809143   20.348097   21.321446 H          1 MOL1         0.0997
      17    C5      19.363925   21.132327   22.774901 C.3        1 MOL1        -0.2320
      18    H12     18.633492   20.316374   22.791754 H          1 MOL1         0.1008
      19    H13     19.376730   21.582498   23.776152 H          1 MOL1         0.1008
      20    H14     19.003000   21.896451   22.074167 H          1 MOL1         0.1008
@<TRIPOS>BOND
    1     1     2    1
    2     1     3    1
    3     1     4    1
    4     1     5    1
    5     5     6    1
    6     5     7    1
    7     5     8    1
    8     8     9    1
    9     8    10    1
   10     8    11    1
   11    11    12    1
   12    11    13    1
   13    11    14    1
   14    14    15    1
   15    14    16    1
   16    14    17    1
   17    17    18    1
   18    17    19    1
   19    17    20    1
@<TRIPOS>SUBSTRUCTURE
       1 MOL1            1 RESIDUE      1      MOL     
@<SCITEGIC>MOL_PROPERTY
VConf Rank
SciTegic.value.IntegerValue
431

@<SCITEGIC>MOL_PROPERTY
Conf_Id
SciTegic.value.IntegerValue
77

@<SCITEGIC>MOL_PROPERTY
Delta U+W
SciTegic.value.DoubleValue
5.366

@<SCITEGIC>MOL_PROPERTY
U+W
SciTegic.value.DoubleValue
-6.412

@<SCITEGIC>MOL_PROPERTY
Grad RMS
SciTegic.value.DoubleValue
0.000000

@<SCITEGIC>MOL_PROPERTY
U
SciTegic.value.DoubleValue
51.542

@<SCITEGIC>MOL_PROPERTY
W
SciTegic.value.DoubleValue
-57.954

@<SCITEGIC>MOL_PROPERTY
W(PB)
SciTegic.value.DoubleValue
-59.811

@<SCITEGIC>MOL_PROPERTY
W(SA)
SciTegic.value.DoubleValue
1.857

@<SCITEGIC>MOL_PROPERTY
Valence
SciTegic.value.DoubleValue
5.347

@<SCITEGIC>MOL_PROPERTY
Coulomb
SciTegic.value.DoubleValue
45.870

@<SCITEGIC>MOL_PROPERTY
VdW
SciTegic.value.DoubleValue
0.325

@<SCITEGIC>MOL_PROPERTY
VdW6
SciTegic.value.DoubleValue
-6.161

@<SCITEGIC>MOL_PROPERTY
VdW12
SciTegic.value.DoubleValue
6.486

@<SCITEGIC>MOL_PROPERTY
Bond
SciTegic.value.DoubleValue
0.201

@<SCITEGIC>MOL_PROPERTY
Angle
SciTegic.value.DoubleValue
1.484

@<SCITEGIC>MOL_PROPERTY
Pdih
SciTegic.value.DoubleValue
3.662

@<SCITEGIC>MOL_PROPERTY
Idih
SciTegic.value.DoubleValue
0.000

@<SCITEGIC>MOL_PROPERTY
Tether
SciTegic.value.DoubleValue
0.000

@<TRIPOS>MOLECULE
guest-s11_confgen4.mol2 : confsearch ligand conformer 432
          20          19           1
SMALL
USER_CHARGES
 
@<TRIPOS>ATOM
       1    N1      18.856156   19.576206   21.121598 N.4        1 MOL1        -0.5919
       2    H1      19.204205   19.669239   20.162112 H          1 MOL1         0.3682
       3    H2      18.981668   18.597635   21.397952 H          1 MOL1         0.3682
       4    H3      17.847505   19.759032   21.091940 H          1 MOL1         0.3682
       5    C1      19.571551   20.515657   22.073019 C.3        1 MOL1         0.0252
       6    H4      19.118899   20.423086   23.063846 H          1 MOL1         0.0971
       7    H5      19.393218   21.532329   21.712330 H          1 MOL1         0.0971
       8    C2      21.091859   20.274294   22.166919 C.3        1 MOL1        -0.1369
       9    H6      21.501835   20.091280   21.164804 H          1 MOL1         0.0997
      10    H7      21.556818   21.206735   22.513589 H          1 MOL1         0.0997
      11    C3      21.522955   19.141468   23.136828 C.3        1 MOL1        -0.1329
      12    H8      21.226861   19.395225   24.164155 H          1 MOL1         0.0997
      13    H9      22.621534   19.117692   23.145964 H          1 MOL1         0.0997
      14    C4      21.015647   17.722968   22.772113 C.3        1 MOL1        -0.1305
      15    H10     20.883173   17.629607   21.685836 H          1 MOL1         0.0997
      16    H11     21.793999   16.993848   23.038217 H          1 MOL1         0.0997
      17    C5      19.722028   17.328385   23.523561 C.3        1 MOL1        -0.2320
      18    H12     19.368913   16.342351   23.194579 H          1 MOL1         0.1008
      19    H13     19.906315   17.269205   24.604235 H          1 MOL1         0.1008
      20    H14     18.910735   18.047628   23.368359 H          1 MOL1         0.1008
@<TRIPOS>BOND
    1     1     2    1
    2     1     3    1
    3     1     4    1
    4     1     5    1
    5     5     6    1
    6     5     7    1
    7     5     8    1
    8     8     9    1
    9     8    10    1
   10     8    11    1
   11    11    12    1
   12    11    13    1
   13    11    14    1
   14    14    15    1
   15    14    16    1
   16    14    17    1
   17    17    18    1
   18    17    19    1
   19    17    20    1
@<TRIPOS>SUBSTRUCTURE
       1 MOL1            1 RESIDUE      1      MOL     
@<SCITEGIC>MOL_PROPERTY
VConf Rank
SciTegic.value.IntegerValue
432

@<SCITEGIC>MOL_PROPERTY
Conf_Id
SciTegic.value.IntegerValue
67

@<SCITEGIC>MOL_PROPERTY
Delta U+W
SciTegic.value.DoubleValue
5.353

@<SCITEGIC>MOL_PROPERTY
U+W
SciTegic.value.DoubleValue
-6.425

@<SCITEGIC>MOL_PROPERTY
Grad RMS
SciTegic.value.DoubleValue
0.000000

@<SCITEGIC>MOL_PROPERTY
U
SciTegic.value.DoubleValue
51.541

@<SCITEGIC>MOL_PROPERTY
W
SciTegic.value.DoubleValue
-57.966

@<SCITEGIC>MOL_PROPERTY
W(PB)
SciTegic.value.DoubleValue
-59.821

@<SCITEGIC>MOL_PROPERTY
W(SA)
SciTegic.value.DoubleValue
1.855

@<SCITEGIC>MOL_PROPERTY
Valence
SciTegic.value.DoubleValue
5.347

@<SCITEGIC>MOL_PROPERTY
Coulomb
SciTegic.value.DoubleValue
45.870

@<SCITEGIC>MOL_PROPERTY
VdW
SciTegic.value.DoubleValue
0.325

@<SCITEGIC>MOL_PROPERTY
VdW6
SciTegic.value.DoubleValue
-6.161

@<SCITEGIC>MOL_PROPERTY
VdW12
SciTegic.value.DoubleValue
6.486

@<SCITEGIC>MOL_PROPERTY
Bond
SciTegic.value.DoubleValue
0.201

@<SCITEGIC>MOL_PROPERTY
Angle
SciTegic.value.DoubleValue
1.485

@<SCITEGIC>MOL_PROPERTY
Pdih
SciTegic.value.DoubleValue
3.662

@<SCITEGIC>MOL_PROPERTY
Idih
SciTegic.value.DoubleValue
0.000

@<SCITEGIC>MOL_PROPERTY
Tether
SciTegic.value.DoubleValue
0.000

@<TRIPOS>MOLECULE
guest-s11_confgen4.mol2 : confsearch ligand conformer 433
          20          19           1
SMALL
USER_CHARGES
 
@<TRIPOS>ATOM
       1    N1      18.360662   16.690281   21.373050 N.4        1 MOL1        -0.5919
       2    H1      17.438316   17.091954   21.568817 H          1 MOL1         0.3682
       3    H2      18.271648   16.150438   20.505729 H          1 MOL1         0.3682
       4    H3      18.561931   16.019294   22.121151 H          1 MOL1         0.3682
       5    C1      19.431854   17.756761   21.265078 C.3        1 MOL1         0.0252
       6    H4      19.169607   18.415495   20.432724 H          1 MOL1         0.0971
       7    H5      20.377516   17.262386   21.026682 H          1 MOL1         0.0971
       8    C2      19.591260   18.586485   22.551706 C.3        1 MOL1        -0.1369
       9    H6      18.635087   19.068239   22.796071 H          1 MOL1         0.0997
      10    H7      19.838836   17.919110   23.387998 H          1 MOL1         0.0997
      11    C3      20.691268   19.660570   22.399864 C.3        1 MOL1        -0.1329
      12    H8      20.443010   20.323269   21.559038 H          1 MOL1         0.0997
      13    H9      21.645341   19.175520   22.150340 H          1 MOL1         0.0997
      14    C4      20.860172   20.500117   23.686009 C.3        1 MOL1        -0.1305
      15    H10     19.908505   20.988813   23.938110 H          1 MOL1         0.0997
      16    H11     21.110761   19.841255   24.529308 H          1 MOL1         0.0997
      17    C5      21.960084   21.571898   23.529626 C.3        1 MOL1        -0.2320
      18    H12     21.720624   22.267760   22.714978 H          1 MOL1         0.1008
      19    H13     22.065016   22.157296   24.452308 H          1 MOL1         0.1008
      20    H14     22.932292   21.111248   23.310931 H          1 MOL1         0.1008
@<TRIPOS>BOND
    1     1     2    1
    2     1     3    1
    3     1     4    1
    4     1     5    1
    5     5     6    1
    6     5     7    1
    7     5     8    1
    8     8     9    1
    9     8    10    1
   10     8    11    1
   11    11    12    1
   12    11    13    1
   13    11    14    1
   14    14    15    1
   15    14    16    1
   16    14    17    1
   17    17    18    1
   18    17    19    1
   19    17    20    1
@<TRIPOS>SUBSTRUCTURE
       1 MOL1            1 RESIDUE      1      MOL     
@<SCITEGIC>MOL_PROPERTY
VConf Rank
SciTegic.value.IntegerValue
433

@<SCITEGIC>MOL_PROPERTY
Conf_Id
SciTegic.value.IntegerValue
72

@<SCITEGIC>MOL_PROPERTY
Delta U+W
SciTegic.value.DoubleValue
0.000

@<SCITEGIC>MOL_PROPERTY
U+W
SciTegic.value.DoubleValue
-11.778

@<SCITEGIC>MOL_PROPERTY
Grad RMS
SciTegic.value.DoubleValue
0.000000

@<SCITEGIC>MOL_PROPERTY
U
SciTegic.value.DoubleValue
45.772

@<SCITEGIC>MOL_PROPERTY
W
SciTegic.value.DoubleValue
-57.550

@<SCITEGIC>MOL_PROPERTY
W(PB)
SciTegic.value.DoubleValue
-59.511

@<SCITEGIC>MOL_PROPERTY
W(SA)
SciTegic.value.DoubleValue
1.961

@<SCITEGIC>MOL_PROPERTY
Valence
SciTegic.value.DoubleValue
1.299

@<SCITEGIC>MOL_PROPERTY
Coulomb
SciTegic.value.DoubleValue
44.177

@<SCITEGIC>MOL_PROPERTY
VdW
SciTegic.value.DoubleValue
0.297

@<SCITEGIC>MOL_PROPERTY
VdW6
SciTegic.value.DoubleValue
-3.490

@<SCITEGIC>MOL_PROPERTY
VdW12
SciTegic.value.DoubleValue
3.786

@<SCITEGIC>MOL_PROPERTY
Bond
SciTegic.value.DoubleValue
0.096

@<SCITEGIC>MOL_PROPERTY
Angle
SciTegic.value.DoubleValue
0.381

@<SCITEGIC>MOL_PROPERTY
Pdih
SciTegic.value.DoubleValue
0.822

@<SCITEGIC>MOL_PROPERTY
Idih
SciTegic.value.DoubleValue
0.000

@<SCITEGIC>MOL_PROPERTY
Tether
SciTegic.value.DoubleValue
0.000

@<TRIPOS>MOLECULE
guest-s11_confgen4.mol2 : confsearch ligand conformer 434
          20          19           1
SMALL
USER_CHARGES
 
@<TRIPOS>ATOM
       1    N1      17.726979   19.369252   24.313754 N.4        1 MOL1        -0.5919
       2    H1      17.344234   18.491643   23.948180 H          1 MOL1         0.3682
       3    H2      18.212024   19.145290   25.188361 H          1 MOL1         0.3682
       4    H3      16.927519   19.962081   24.560737 H          1 MOL1         0.3682
       5    C1      18.643425   20.047303   23.315282 C.3        1 MOL1         0.0252
       6    H4      18.988191   20.986084   23.757234 H          1 MOL1         0.0971
       7    H5      18.055953   20.283059   22.423765 H          1 MOL1         0.0971
       8    C2      19.855687   19.183752   22.922892 C.3        1 MOL1        -0.1369
       9    H6      20.433830   18.936109   23.823022 H          1 MOL1         0.0997
      10    H7      19.498115   18.237686   22.497253 H          1 MOL1         0.0997
      11    C3      20.763345   19.914971   21.905737 C.3        1 MOL1        -0.1329
      12    H8      21.048463   20.892591   22.318905 H          1 MOL1         0.0997
      13    H9      20.197628   20.121762   20.986613 H          1 MOL1         0.0997
      14    C4      22.052955   19.133585   21.555008 C.3        1 MOL1        -0.1305
      15    H10     22.684636   19.764977   20.914491 H          1 MOL1         0.0997
      16    H11     22.633912   18.945415   22.468768 H          1 MOL1         0.0997
      17    C5      21.783223   17.797334   20.826167 C.3        1 MOL1        -0.2320
      18    H12     21.179368   17.954637   19.923045 H          1 MOL1         0.1008
      19    H13     22.727821   17.329197   20.520332 H          1 MOL1         0.1008
      20    H14     21.256720   17.084167   21.472394 H          1 MOL1         0.1008
@<TRIPOS>BOND
    1     1     2    1
    2     1     3    1
    3     1     4    1
    4     1     5    1
    5     5     6    1
    6     5     7    1
    7     5     8    1
    8     8     9    1
    9     8    10    1
   10     8    11    1
   11    11    12    1
   12    11    13    1
   13    11    14    1
   14    14    15    1
   15    14    16    1
   16    14    17    1
   17    17    18    1
   18    17    19    1
   19    17    20    1
@<TRIPOS>SUBSTRUCTURE
       1 MOL1            1 RESIDUE      1      MOL     
@<SCITEGIC>MOL_PROPERTY
VConf Rank
SciTegic.value.IntegerValue
434

@<SCITEGIC>MOL_PROPERTY
Conf_Id
SciTegic.value.IntegerValue
42

@<SCITEGIC>MOL_PROPERTY
Delta U+W
SciTegic.value.DoubleValue
0.508

@<SCITEGIC>MOL_PROPERTY
U+W
SciTegic.value.DoubleValue
-11.270

@<SCITEGIC>MOL_PROPERTY
Grad RMS
SciTegic.value.DoubleValue
0.000000

@<SCITEGIC>MOL_PROPERTY
U
SciTegic.value.DoubleValue
46.486

@<SCITEGIC>MOL_PROPERTY
W
SciTegic.value.DoubleValue
-57.756

@<SCITEGIC>MOL_PROPERTY
W(PB)
SciTegic.value.DoubleValue
-59.705

@<SCITEGIC>MOL_PROPERTY
W(SA)
SciTegic.value.DoubleValue
1.949

@<SCITEGIC>MOL_PROPERTY
Valence
SciTegic.value.DoubleValue
1.806

@<SCITEGIC>MOL_PROPERTY
Coulomb
SciTegic.value.DoubleValue
44.248

@<SCITEGIC>MOL_PROPERTY
VdW
SciTegic.value.DoubleValue
0.433

@<SCITEGIC>MOL_PROPERTY
VdW6
SciTegic.value.DoubleValue
-4.089

@<SCITEGIC>MOL_PROPERTY
VdW12
SciTegic.value.DoubleValue
4.522

@<SCITEGIC>MOL_PROPERTY
Bond
SciTegic.value.DoubleValue
0.131

@<SCITEGIC>MOL_PROPERTY
Angle
SciTegic.value.DoubleValue
0.628

@<SCITEGIC>MOL_PROPERTY
Pdih
SciTegic.value.DoubleValue
1.047

@<SCITEGIC>MOL_PROPERTY
Idih
SciTegic.value.DoubleValue
0.000

@<SCITEGIC>MOL_PROPERTY
Tether
SciTegic.value.DoubleValue
0.000

@<TRIPOS>MOLECULE
guest-s11_confgen4.mol2 : confsearch ligand conformer 435
          20          19           1
SMALL
USER_CHARGES
 
@<TRIPOS>ATOM
       1    N1      17.186118   19.338250   22.824632 N.4        1 MOL1        -0.5919
       2    H1      16.918680   18.423504   22.447698 H          1 MOL1         0.3682
       3    H2      17.269025   19.232939   23.840688 H          1 MOL1         0.3682
       4    H3      16.397708   19.971626   22.654853 H          1 MOL1         0.3682
       5    C1      18.467506   19.854917   22.201990 C.3        1 MOL1         0.0252
       6    H4      18.674960   20.841282   22.625729 H          1 MOL1         0.0971
       7    H5      18.297672   19.971524   21.128186 H          1 MOL1         0.0971
       8    C2      19.672308   18.926432   22.437866 C.3        1 MOL1        -0.1369
       9    H6      19.822285   18.802467   23.517776 H          1 MOL1         0.0997
      10    H7      19.453433   17.932754   22.024937 H          1 MOL1         0.0997
      11    C3      20.955756   19.490891   21.784200 C.3        1 MOL1        -0.1329
      12    H8      21.200794   20.464818   22.230307 H          1 MOL1         0.0997
      13    H9      20.761469   19.679671   20.719137 H          1 MOL1         0.0997
      14    C4      22.176245   18.545813   21.902118 C.3        1 MOL1        -0.1305
      15    H10     21.943752   17.578159   21.435782 H          1 MOL1         0.0997
      16    H11     23.009219   18.971949   21.325489 H          1 MOL1         0.0997
      17    C5      22.642208   18.322114   23.358954 C.3        1 MOL1        -0.2320
      18    H12     21.886057   17.787493   23.947034 H          1 MOL1         0.1008
      19    H13     23.560939   17.721760   23.380423 H          1 MOL1         0.1008
      20    H14     22.854209   19.277049   23.857119 H          1 MOL1         0.1008
@<TRIPOS>BOND
    1     1     2    1
    2     1     3    1
    3     1     4    1
    4     1     5    1
    5     5     6    1
    6     5     7    1
    7     5     8    1
    8     8     9    1
    9     8    10    1
   10     8    11    1
   11    11    12    1
   12    11    13    1
   13    11    14    1
   14    14    15    1
   15    14    16    1
   16    14    17    1
   17    17    18    1
   18    17    19    1
   19    17    20    1
@<TRIPOS>SUBSTRUCTURE
       1 MOL1            1 RESIDUE      1      MOL     
@<SCITEGIC>MOL_PROPERTY
VConf Rank
SciTegic.value.IntegerValue
435

@<SCITEGIC>MOL_PROPERTY
Conf_Id
SciTegic.value.IntegerValue
41

@<SCITEGIC>MOL_PROPERTY
Delta U+W
SciTegic.value.DoubleValue
0.515

@<SCITEGIC>MOL_PROPERTY
U+W
SciTegic.value.DoubleValue
-11.263

@<SCITEGIC>MOL_PROPERTY
Grad RMS
SciTegic.value.DoubleValue
0.000000

@<SCITEGIC>MOL_PROPERTY
U
SciTegic.value.DoubleValue
46.486

@<SCITEGIC>MOL_PROPERTY
W
SciTegic.value.DoubleValue
-57.749

@<SCITEGIC>MOL_PROPERTY
W(PB)
SciTegic.value.DoubleValue
-59.685

@<SCITEGIC>MOL_PROPERTY
W(SA)
SciTegic.value.DoubleValue
1.936

@<SCITEGIC>MOL_PROPERTY
Valence
SciTegic.value.DoubleValue
1.806

@<SCITEGIC>MOL_PROPERTY
Coulomb
SciTegic.value.DoubleValue
44.248

@<SCITEGIC>MOL_PROPERTY
VdW
SciTegic.value.DoubleValue
0.433

@<SCITEGIC>MOL_PROPERTY
VdW6
SciTegic.value.DoubleValue
-4.089

@<SCITEGIC>MOL_PROPERTY
VdW12
SciTegic.value.DoubleValue
4.522

@<SCITEGIC>MOL_PROPERTY
Bond
SciTegic.value.DoubleValue
0.131

@<SCITEGIC>MOL_PROPERTY
Angle
SciTegic.value.DoubleValue
0.628

@<SCITEGIC>MOL_PROPERTY
Pdih
SciTegic.value.DoubleValue
1.047

@<SCITEGIC>MOL_PROPERTY
Idih
SciTegic.value.DoubleValue
0.000

@<SCITEGIC>MOL_PROPERTY
Tether
SciTegic.value.DoubleValue
0.000

@<TRIPOS>MOLECULE
guest-s11_confgen4.mol2 : confsearch ligand conformer 436
          20          19           1
SMALL
USER_CHARGES
 
@<TRIPOS>ATOM
       1    N1      17.827147   20.278160   21.489838 N.4        1 MOL1        -0.5919
       2    H1      17.330158   21.023432   20.990766 H          1 MOL1         0.3682
       3    H2      18.009926   19.534539   20.809720 H          1 MOL1         0.3682
       4    H3      17.175974   19.899712   22.184780 H          1 MOL1         0.3682
       5    C1      19.105046   20.785082   22.130281 C.3        1 MOL1         0.0252
       6    H4      18.834775   21.601129   22.806018 H          1 MOL1         0.0971
       7    H5      19.741774   21.194252   21.341231 H          1 MOL1         0.0971
       8    C2      19.879719   19.708784   22.915988 C.3        1 MOL1        -0.1369
       9    H6      20.713524   20.200969   23.431868 H          1 MOL1         0.0997
      10    H7      19.232100   19.287518   23.696252 H          1 MOL1         0.0997
      11    C3      20.421371   18.577357   22.006261 C.3        1 MOL1        -0.1329
      12    H8      21.086365   19.003569   21.242328 H          1 MOL1         0.0997
      13    H9      19.586840   18.112588   21.464823 H          1 MOL1         0.0997
      14    C4      21.171063   17.467495   22.782887 C.3        1 MOL1        -0.1305
      15    H10     20.505560   17.028467   23.539343 H          1 MOL1         0.0997
      16    H11     21.419363   16.655716   22.084817 H          1 MOL1         0.0997
      17    C5      22.472824   17.958105   23.457039 C.3        1 MOL1        -0.2320
      18    H12     22.266876   18.683126   24.254033 H          1 MOL1         0.1008
      19    H13     23.011447   17.115745   23.910099 H          1 MOL1         0.1008
      20    H14     23.142680   18.430005   22.726555 H          1 MOL1         0.1008
@<TRIPOS>BOND
    1     1     2    1
    2     1     3    1
    3     1     4    1
    4     1     5    1
    5     5     6    1
    6     5     7    1
    7     5     8    1
    8     8     9    1
    9     8    10    1
   10     8    11    1
   11    11    12    1
   12    11    13    1
   13    11    14    1
   14    14    15    1
   15    14    16    1
   16    14    17    1
   17    17    18    1
   18    17    19    1
   19    17    20    1
@<TRIPOS>SUBSTRUCTURE
       1 MOL1            1 RESIDUE      1      MOL     
@<SCITEGIC>MOL_PROPERTY
VConf Rank
SciTegic.value.IntegerValue
436

@<SCITEGIC>MOL_PROPERTY
Conf_Id
SciTegic.value.IntegerValue
33

@<SCITEGIC>MOL_PROPERTY
Delta U+W
SciTegic.value.DoubleValue
0.703

@<SCITEGIC>MOL_PROPERTY
U+W
SciTegic.value.DoubleValue
-11.075

@<SCITEGIC>MOL_PROPERTY
Grad RMS
SciTegic.value.DoubleValue
0.000000

@<SCITEGIC>MOL_PROPERTY
U
SciTegic.value.DoubleValue
47.080

@<SCITEGIC>MOL_PROPERTY
W
SciTegic.value.DoubleValue
-58.154

@<SCITEGIC>MOL_PROPERTY
W(PB)
SciTegic.value.DoubleValue
-60.053

@<SCITEGIC>MOL_PROPERTY
W(SA)
SciTegic.value.DoubleValue
1.899

@<SCITEGIC>MOL_PROPERTY
Valence
SciTegic.value.DoubleValue
1.943

@<SCITEGIC>MOL_PROPERTY
Coulomb
SciTegic.value.DoubleValue
44.572

@<SCITEGIC>MOL_PROPERTY
VdW
SciTegic.value.DoubleValue
0.565

@<SCITEGIC>MOL_PROPERTY
VdW6
SciTegic.value.DoubleValue
-4.575

@<SCITEGIC>MOL_PROPERTY
VdW12
SciTegic.value.DoubleValue
5.139

@<SCITEGIC>MOL_PROPERTY
Bond
SciTegic.value.DoubleValue
0.158

@<SCITEGIC>MOL_PROPERTY
Angle
SciTegic.value.DoubleValue
0.700

@<SCITEGIC>MOL_PROPERTY
Pdih
SciTegic.value.DoubleValue
1.085

@<SCITEGIC>MOL_PROPERTY
Idih
SciTegic.value.DoubleValue
0.000

@<SCITEGIC>MOL_PROPERTY
Tether
SciTegic.value.DoubleValue
0.000

@<TRIPOS>MOLECULE
guest-s11_confgen4.mol2 : confsearch ligand conformer 437
          20          19           1
SMALL
USER_CHARGES
 
@<TRIPOS>ATOM
       1    N1      18.568905   17.247328   23.741244 N.4        1 MOL1        -0.5919
       2    H1      17.968356   16.951563   24.518009 H          1 MOL1         0.3682
       3    H2      18.258301   16.731784   22.911827 H          1 MOL1         0.3682
       4    H3      19.517120   16.927365   23.959078 H          1 MOL1         0.3682
       5    C1      18.513796   18.747767   23.527218 C.3        1 MOL1         0.0252
       6    H4      18.833610   19.235180   24.452199 H          1 MOL1         0.0971
       7    H5      17.469966   19.017328   23.344580 H          1 MOL1         0.0971
       8    C2      19.380663   19.243649   22.353121 C.3        1 MOL1        -0.1369
       9    H6      19.068718   18.739549   21.428856 H          1 MOL1         0.0997
      10    H7      19.178702   20.312626   22.211320 H          1 MOL1         0.0997
      11    C3      20.895688   19.024244   22.593284 C.3        1 MOL1        -0.1329
      12    H8      21.086947   17.957687   22.770725 H          1 MOL1         0.0997
      13    H9      21.205126   19.550027   23.507214 H          1 MOL1         0.0997
      14    C4      21.780477   19.483022   21.408528 C.3        1 MOL1        -0.1305
      15    H10     22.820002   19.189285   21.611132 H          1 MOL1         0.0997
      16    H11     21.483840   18.949764   20.494467 H          1 MOL1         0.0997
      17    C5      21.735095   21.007982   21.159121 C.3        1 MOL1        -0.2320
      18    H12     21.997352   21.565115   22.067872 H          1 MOL1         0.1008
      19    H13     22.449890   21.290125   20.375277 H          1 MOL1         0.1008
      20    H14     20.740899   21.334346   20.829983 H          1 MOL1         0.1008
@<TRIPOS>BOND
    1     1     2    1
    2     1     3    1
    3     1     4    1
    4     1     5    1
    5     5     6    1
    6     5     7    1
    7     5     8    1
    8     8     9    1
    9     8    10    1
   10     8    11    1
   11    11    12    1
   12    11    13    1
   13    11    14    1
   14    14    15    1
   15    14    16    1
   16    14    17    1
   17    17    18    1
   18    17    19    1
   19    17    20    1
@<TRIPOS>SUBSTRUCTURE
       1 MOL1            1 RESIDUE      1      MOL     
@<SCITEGIC>MOL_PROPERTY
VConf Rank
SciTegic.value.IntegerValue
437

@<SCITEGIC>MOL_PROPERTY
Conf_Id
SciTegic.value.IntegerValue
24

@<SCITEGIC>MOL_PROPERTY
Delta U+W
SciTegic.value.DoubleValue
0.847

@<SCITEGIC>MOL_PROPERTY
U+W
SciTegic.value.DoubleValue
-10.931

@<SCITEGIC>MOL_PROPERTY
Grad RMS
SciTegic.value.DoubleValue
0.000000

@<SCITEGIC>MOL_PROPERTY
U
SciTegic.value.DoubleValue
47.080

@<SCITEGIC>MOL_PROPERTY
W
SciTegic.value.DoubleValue
-58.011

@<SCITEGIC>MOL_PROPERTY
W(PB)
SciTegic.value.DoubleValue
-59.914

@<SCITEGIC>MOL_PROPERTY
W(SA)
SciTegic.value.DoubleValue
1.903

@<SCITEGIC>MOL_PROPERTY
Valence
SciTegic.value.DoubleValue
1.943

@<SCITEGIC>MOL_PROPERTY
Coulomb
SciTegic.value.DoubleValue
44.572

@<SCITEGIC>MOL_PROPERTY
VdW
SciTegic.value.DoubleValue
0.565

@<SCITEGIC>MOL_PROPERTY
VdW6
SciTegic.value.DoubleValue
-4.575

@<SCITEGIC>MOL_PROPERTY
VdW12
SciTegic.value.DoubleValue
5.140

@<SCITEGIC>MOL_PROPERTY
Bond
SciTegic.value.DoubleValue
0.158

@<SCITEGIC>MOL_PROPERTY
Angle
SciTegic.value.DoubleValue
0.700

@<SCITEGIC>MOL_PROPERTY
Pdih
SciTegic.value.DoubleValue
1.085

@<SCITEGIC>MOL_PROPERTY
Idih
SciTegic.value.DoubleValue
0.000

@<SCITEGIC>MOL_PROPERTY
Tether
SciTegic.value.DoubleValue
0.000

@<TRIPOS>MOLECULE
guest-s11_confgen4.mol2 : confsearch ligand conformer 438
          20          19           1
SMALL
USER_CHARGES
 
@<TRIPOS>ATOM
       1    N1      19.738440   21.871779   23.028643 N.4        1 MOL1        -0.5919
       2    H1      18.944713   22.292260   23.523298 H          1 MOL1         0.3682
       3    H2      20.533217   21.886053   23.675441 H          1 MOL1         0.3682
       4    H3      19.970561   22.499222   22.252277 H          1 MOL1         0.3682
       5    C1      19.423832   20.469357   22.548475 C.3        1 MOL1         0.0252
       6    H4      18.552952   20.524953   21.889799 H          1 MOL1         0.0971
       7    H5      19.157187   19.867531   23.421223 H          1 MOL1         0.0971
       8    C2      20.597107   19.808085   21.800966 C.3        1 MOL1        -0.1369
       9    H6      20.883817   20.441412   20.950993 H          1 MOL1         0.0997
      10    H7      21.474641   19.760047   22.458296 H          1 MOL1         0.0997
      11    C3      20.251099   18.392688   21.274729 C.3        1 MOL1        -0.1329
      12    H8      21.123559   17.986676   20.744416 H          1 MOL1         0.0997
      13    H9      19.453449   18.476718   20.523605 H          1 MOL1         0.0997
      14    C4      19.805699   17.383983   22.364388 C.3        1 MOL1        -0.1305
      15    H10     18.872389   17.721440   22.835380 H          1 MOL1         0.0997
      16    H11     19.568993   16.426519   21.879503 H          1 MOL1         0.0997
      17    C5      20.877575   17.139978   23.450920 C.3        1 MOL1        -0.2320
      18    H12     20.551537   16.352460   24.142599 H          1 MOL1         0.1008
      19    H13     21.827944   16.821172   23.003554 H          1 MOL1         0.1008
      20    H14     21.062570   18.043959   24.044409 H          1 MOL1         0.1008
@<TRIPOS>BOND
    1     1     2    1
    2     1     3    1
    3     1     4    1
    4     1     5    1
    5     5     6    1
    6     5     7    1
    7     5     8    1
    8     8     9    1
    9     8    10    1
   10     8    11    1
   11    11    12    1
   12    11    13    1
   13    11    14    1
   14    14    15    1
   15    14    16    1
   16    14    17    1
   17    17    18    1
   18    17    19    1
   19    17    20    1
@<TRIPOS>SUBSTRUCTURE
       1 MOL1            1 RESIDUE      1      MOL     
@<SCITEGIC>MOL_PROPERTY
VConf Rank
SciTegic.value.IntegerValue
438

@<SCITEGIC>MOL_PROPERTY
Conf_Id
SciTegic.value.IntegerValue
64

@<SCITEGIC>MOL_PROPERTY
Delta U+W
SciTegic.value.DoubleValue
0.707

@<SCITEGIC>MOL_PROPERTY
U+W
SciTegic.value.DoubleValue
-11.070

@<SCITEGIC>MOL_PROPERTY
Grad RMS
SciTegic.value.DoubleValue
0.000000

@<SCITEGIC>MOL_PROPERTY
U
SciTegic.value.DoubleValue
47.077

@<SCITEGIC>MOL_PROPERTY
W
SciTegic.value.DoubleValue
-58.148

@<SCITEGIC>MOL_PROPERTY
W(PB)
SciTegic.value.DoubleValue
-60.054

@<SCITEGIC>MOL_PROPERTY
W(SA)
SciTegic.value.DoubleValue
1.906

@<SCITEGIC>MOL_PROPERTY
Valence
SciTegic.value.DoubleValue
2.039

@<SCITEGIC>MOL_PROPERTY
Coulomb
SciTegic.value.DoubleValue
44.655

@<SCITEGIC>MOL_PROPERTY
VdW
SciTegic.value.DoubleValue
0.383

@<SCITEGIC>MOL_PROPERTY
VdW6
SciTegic.value.DoubleValue
-4.912

@<SCITEGIC>MOL_PROPERTY
VdW12
SciTegic.value.DoubleValue
5.295

@<SCITEGIC>MOL_PROPERTY
Bond
SciTegic.value.DoubleValue
0.159

@<SCITEGIC>MOL_PROPERTY
Angle
SciTegic.value.DoubleValue
0.856

@<SCITEGIC>MOL_PROPERTY
Pdih
SciTegic.value.DoubleValue
1.024

@<SCITEGIC>MOL_PROPERTY
Idih
SciTegic.value.DoubleValue
0.000

@<SCITEGIC>MOL_PROPERTY
Tether
SciTegic.value.DoubleValue
0.000

@<TRIPOS>MOLECULE
guest-s11_confgen4.mol2 : confsearch ligand conformer 439
          20          19           1
SMALL
USER_CHARGES
 
@<TRIPOS>ATOM
       1    N1      17.837925   20.344264   21.930828 N.4        1 MOL1        -0.5919
       2    H1      17.803126   20.781997   21.004822 H          1 MOL1         0.3682
       3    H2      17.339902   19.451350   21.860829 H          1 MOL1         0.3682
       4    H3      17.292376   20.940527   22.561966 H          1 MOL1         0.3682
       5    C1      19.261303   20.162445   22.417924 C.3        1 MOL1         0.0252
       6    H4      19.220442   19.721552   23.417388 H          1 MOL1         0.0971
       7    H5      19.720606   21.151493   22.496695 H          1 MOL1         0.0971
       8    C2      20.108739   19.270233   21.491408 C.3        1 MOL1        -0.1369
       9    H6      19.643612   18.280015   21.404348 H          1 MOL1         0.0997
      10    H7      20.108804   19.699916   20.480897 H          1 MOL1         0.0997
      11    C3      21.574125   19.126847   21.973152 C.3        1 MOL1        -0.1329
      12    H8      22.060373   20.111477   21.933655 H          1 MOL1         0.0997
      13    H9      22.121713   18.491085   21.263774 H          1 MOL1         0.0997
      14    C4      21.735874   18.547779   23.402047 C.3        1 MOL1        -0.1305
      15    H10     22.807053   18.508397   23.644754 H          1 MOL1         0.0997
      16    H11     21.285077   19.225644   24.139649 H          1 MOL1         0.0997
      17    C5      21.136791   17.132064   23.562861 C.3        1 MOL1        -0.2320
      18    H12     21.556628   16.439118   22.822228 H          1 MOL1         0.1008
      19    H13     21.358846   16.731693   24.560509 H          1 MOL1         0.1008
      20    H14     20.045902   17.140736   23.446587 H          1 MOL1         0.1008
@<TRIPOS>BOND
    1     1     2    1
    2     1     3    1
    3     1     4    1
    4     1     5    1
    5     5     6    1
    6     5     7    1
    7     5     8    1
    8     8     9    1
    9     8    10    1
   10     8    11    1
   11    11    12    1
   12    11    13    1
   13    11    14    1
   14    14    15    1
   15    14    16    1
   16    14    17    1
   17    17    18    1
   18    17    19    1
   19    17    20    1
@<TRIPOS>SUBSTRUCTURE
       1 MOL1            1 RESIDUE      1      MOL     
@<SCITEGIC>MOL_PROPERTY
VConf Rank
SciTegic.value.IntegerValue
439

@<SCITEGIC>MOL_PROPERTY
Conf_Id
SciTegic.value.IntegerValue
22

@<SCITEGIC>MOL_PROPERTY
Delta U+W
SciTegic.value.DoubleValue
0.731

@<SCITEGIC>MOL_PROPERTY
U+W
SciTegic.value.DoubleValue
-11.047

@<SCITEGIC>MOL_PROPERTY
Grad RMS
SciTegic.value.DoubleValue
0.000000

@<SCITEGIC>MOL_PROPERTY
U
SciTegic.value.DoubleValue
47.078

@<SCITEGIC>MOL_PROPERTY
W
SciTegic.value.DoubleValue
-58.125

@<SCITEGIC>MOL_PROPERTY
W(PB)
SciTegic.value.DoubleValue
-60.031

@<SCITEGIC>MOL_PROPERTY
W(SA)
SciTegic.value.DoubleValue
1.906

@<SCITEGIC>MOL_PROPERTY
Valence
SciTegic.value.DoubleValue
2.039

@<SCITEGIC>MOL_PROPERTY
Coulomb
SciTegic.value.DoubleValue
44.655

@<SCITEGIC>MOL_PROPERTY
VdW
SciTegic.value.DoubleValue
0.383

@<SCITEGIC>MOL_PROPERTY
VdW6
SciTegic.value.DoubleValue
-4.913

@<SCITEGIC>MOL_PROPERTY
VdW12
SciTegic.value.DoubleValue
5.296

@<SCITEGIC>MOL_PROPERTY
Bond
SciTegic.value.DoubleValue
0.159

@<SCITEGIC>MOL_PROPERTY
Angle
SciTegic.value.DoubleValue
0.856

@<SCITEGIC>MOL_PROPERTY
Pdih
SciTegic.value.DoubleValue
1.024

@<SCITEGIC>MOL_PROPERTY
Idih
SciTegic.value.DoubleValue
0.000

@<SCITEGIC>MOL_PROPERTY
Tether
SciTegic.value.DoubleValue
0.000

@<TRIPOS>MOLECULE
guest-s11_confgen4.mol2 : confsearch ligand conformer 440
          20          19           1
SMALL
USER_CHARGES
 
@<TRIPOS>ATOM
       1    N1      19.175497   16.731405   23.168688 N.4        1 MOL1        -0.5919
       2    H1      20.027533   16.221905   23.423204 H          1 MOL1         0.3682
       3    H2      18.578091   16.753796   24.001104 H          1 MOL1         0.3682
       4    H3      18.687495   16.163559   22.468046 H          1 MOL1         0.3682
       5    C1      19.480614   18.123312   22.652831 C.3        1 MOL1         0.0252
       6    H4      18.534646   18.596487   22.375980 H          1 MOL1         0.0971
       7    H5      20.092462   18.017085   21.754151 H          1 MOL1         0.0971
       8    C2      20.218717   18.999980   23.680123 C.3        1 MOL1        -0.1369
       9    H6      19.649206   18.998968   24.619048 H          1 MOL1         0.0997
      10    H7      21.194614   18.551701   23.909155 H          1 MOL1         0.0997
      11    C3      20.414590   20.469054   23.226947 C.3        1 MOL1        -0.1329
      12    H8      20.864457   21.016078   24.067147 H          1 MOL1         0.0997
      13    H9      19.439706   20.944633   23.051515 H          1 MOL1         0.0997
      14    C4      21.330971   20.654187   21.989545 C.3        1 MOL1        -0.1305
      15    H10     21.804827   21.643671   22.056521 H          1 MOL1         0.0997
      16    H11     22.152514   19.924561   22.010846 H          1 MOL1         0.0997
      17    C5      20.582164   20.579641   20.638040 C.3        1 MOL1        -0.2320
      18    H12     20.155827   19.588252   20.452948 H          1 MOL1         0.1008
      19    H13     19.767113   21.313895   20.598448 H          1 MOL1         0.1008
      20    H14     21.267562   20.800442   19.809511 H          1 MOL1         0.1008
@<TRIPOS>BOND
    1     1     2    1
    2     1     3    1
    3     1     4    1
    4     1     5    1
    5     5     6    1
    6     5     7    1
    7     5     8    1
    8     8     9    1
    9     8    10    1
   10     8    11    1
   11    11    12    1
   12    11    13    1
   13    11    14    1
   14    14    15    1
   15    14    16    1
   16    14    17    1
   17    17    18    1
   18    17    19    1
   19    17    20    1
@<TRIPOS>SUBSTRUCTURE
       1 MOL1            1 RESIDUE      1      MOL     
@<SCITEGIC>MOL_PROPERTY
VConf Rank
SciTegic.value.IntegerValue
440

@<SCITEGIC>MOL_PROPERTY
Conf_Id
SciTegic.value.IntegerValue
61

@<SCITEGIC>MOL_PROPERTY
Delta U+W
SciTegic.value.DoubleValue
2.669

@<SCITEGIC>MOL_PROPERTY
U+W
SciTegic.value.DoubleValue
-9.108

@<SCITEGIC>MOL_PROPERTY
Grad RMS
SciTegic.value.DoubleValue
0.000000

@<SCITEGIC>MOL_PROPERTY
U
SciTegic.value.DoubleValue
48.916

@<SCITEGIC>MOL_PROPERTY
W
SciTegic.value.DoubleValue
-58.025

@<SCITEGIC>MOL_PROPERTY
W(PB)
SciTegic.value.DoubleValue
-59.935

@<SCITEGIC>MOL_PROPERTY
W(SA)
SciTegic.value.DoubleValue
1.911

@<SCITEGIC>MOL_PROPERTY
Valence
SciTegic.value.DoubleValue
3.785

@<SCITEGIC>MOL_PROPERTY
Coulomb
SciTegic.value.DoubleValue
44.716

@<SCITEGIC>MOL_PROPERTY
VdW
SciTegic.value.DoubleValue
0.415

@<SCITEGIC>MOL_PROPERTY
VdW6
SciTegic.value.DoubleValue
-4.836

@<SCITEGIC>MOL_PROPERTY
VdW12
SciTegic.value.DoubleValue
5.251

@<SCITEGIC>MOL_PROPERTY
Bond
SciTegic.value.DoubleValue
0.175

@<SCITEGIC>MOL_PROPERTY
Angle
SciTegic.value.DoubleValue
1.195

@<SCITEGIC>MOL_PROPERTY
Pdih
SciTegic.value.DoubleValue
2.415

@<SCITEGIC>MOL_PROPERTY
Idih
SciTegic.value.DoubleValue
0.000

@<SCITEGIC>MOL_PROPERTY
Tether
SciTegic.value.DoubleValue
0.000

@<TRIPOS>MOLECULE
guest-s11_confgen4.mol2 : confsearch ligand conformer 441
          20          19           1
SMALL
USER_CHARGES
 
@<TRIPOS>ATOM
       1    N1      20.644430   19.162360   20.190209 N.4        1 MOL1        -0.5919
       2    H1      21.183444   19.666018   19.477866 H          1 MOL1         0.3682
       3    H2      20.057167   18.484946   19.693688 H          1 MOL1         0.3682
       4    H3      20.017271   19.841696   20.628615 H          1 MOL1         0.3682
       5    C1      21.547448   18.487039   21.204641 C.3        1 MOL1         0.0252
       6    H4      22.189131   19.246052   21.660142 H          1 MOL1         0.0971
       7    H5      22.185716   17.793637   20.650235 H          1 MOL1         0.0971
       8    C2      20.797179   17.706592   22.304401 C.3        1 MOL1        -0.1369
       9    H6      19.964686   17.141892   21.864078 H          1 MOL1         0.0997
      10    H7      21.487885   16.955882   22.710887 H          1 MOL1         0.0997
      11    C3      20.295082   18.577554   23.484695 C.3        1 MOL1        -0.1329
      12    H8      21.148294   19.090043   23.950367 H          1 MOL1         0.0997
      13    H9      19.884950   17.907750   24.253223 H          1 MOL1         0.0997
      14    C4      19.215900   19.617040   23.101099 C.3        1 MOL1        -0.1305
      15    H10     19.649087   20.385714   22.448918 H          1 MOL1         0.0997
      16    H11     18.408249   19.127406   22.539051 H          1 MOL1         0.0997
      17    C5      18.623318   20.307706   24.348034 C.3        1 MOL1        -0.2320
      18    H12     17.866787   21.048518   24.058361 H          1 MOL1         0.1008
      19    H13     18.142132   19.578729   25.013070 H          1 MOL1         0.1008
      20    H14     19.403140   20.828457   24.918968 H          1 MOL1         0.1008
@<TRIPOS>BOND
    1     1     2    1
    2     1     3    1
    3     1     4    1
    4     1     5    1
    5     5     6    1
    6     5     7    1
    7     5     8    1
    8     8     9    1
    9     8    10    1
   10     8    11    1
   11    11    12    1
   12    11    13    1
   13    11    14    1
   14    14    15    1
   15    14    16    1
   16    14    17    1
   17    17    18    1
   18    17    19    1
   19    17    20    1
@<TRIPOS>SUBSTRUCTURE
       1 MOL1            1 RESIDUE      1      MOL     
@<SCITEGIC>MOL_PROPERTY
VConf Rank
SciTegic.value.IntegerValue
441

@<SCITEGIC>MOL_PROPERTY
Conf_Id
SciTegic.value.IntegerValue
69

@<SCITEGIC>MOL_PROPERTY
Delta U+W
SciTegic.value.DoubleValue
2.811

@<SCITEGIC>MOL_PROPERTY
U+W
SciTegic.value.DoubleValue
-8.967

@<SCITEGIC>MOL_PROPERTY
Grad RMS
SciTegic.value.DoubleValue
0.000000

@<SCITEGIC>MOL_PROPERTY
U
SciTegic.value.DoubleValue
49.216

@<SCITEGIC>MOL_PROPERTY
W
SciTegic.value.DoubleValue
-58.183

@<SCITEGIC>MOL_PROPERTY
W(PB)
SciTegic.value.DoubleValue
-60.064

@<SCITEGIC>MOL_PROPERTY
W(SA)
SciTegic.value.DoubleValue
1.881

@<SCITEGIC>MOL_PROPERTY
Valence
SciTegic.value.DoubleValue
2.929

@<SCITEGIC>MOL_PROPERTY
Coulomb
SciTegic.value.DoubleValue
46.006

@<SCITEGIC>MOL_PROPERTY
VdW
SciTegic.value.DoubleValue
0.281

@<SCITEGIC>MOL_PROPERTY
VdW6
SciTegic.value.DoubleValue
-4.909

@<SCITEGIC>MOL_PROPERTY
VdW12
SciTegic.value.DoubleValue
5.190

@<SCITEGIC>MOL_PROPERTY
Bond
SciTegic.value.DoubleValue
0.156

@<SCITEGIC>MOL_PROPERTY
Angle
SciTegic.value.DoubleValue
0.974

@<SCITEGIC>MOL_PROPERTY
Pdih
SciTegic.value.DoubleValue
1.799

@<SCITEGIC>MOL_PROPERTY
Idih
SciTegic.value.DoubleValue
0.000

@<SCITEGIC>MOL_PROPERTY
Tether
SciTegic.value.DoubleValue
0.000

@<TRIPOS>MOLECULE
guest-s11_confgen4.mol2 : confsearch ligand conformer 442
          20          19           1
SMALL
USER_CHARGES
 
@<TRIPOS>ATOM
       1    N1      22.365851   19.367952   22.432859 N.4        1 MOL1        -0.5919
       2    H1      21.766282   20.129412   22.104645 H          1 MOL1         0.3682
       3    H2      22.662492   19.605257   23.384696 H          1 MOL1         0.3682
       4    H3      23.208816   19.375250   21.848908 H          1 MOL1         0.3682
       5    C1      21.658795   18.027042   22.381829 C.3        1 MOL1         0.0252
       6    H4      22.372379   17.277702   22.735163 H          1 MOL1         0.0971
       7    H5      21.417944   17.799219   21.339990 H          1 MOL1         0.0971
       8    C2      20.381528   17.947922   23.244271 C.3        1 MOL1        -0.1369
       9    H6      20.192170   16.888691   23.463463 H          1 MOL1         0.0997
      10    H7      20.552822   18.429976   24.215917 H          1 MOL1         0.0997
      11    C3      19.111294   18.527198   22.569945 C.3        1 MOL1        -0.1329
      12    H8      18.251631   18.313273   23.220095 H          1 MOL1         0.0997
      13    H9      18.921515   17.994268   21.627907 H          1 MOL1         0.0997
      14    C4      19.166005   20.049095   22.299489 C.3        1 MOL1        -0.1305
      15    H10     19.461389   20.581071   23.214745 H          1 MOL1         0.0997
      16    H11     19.921994   20.268311   21.535108 H          1 MOL1         0.0997
      17    C5      17.804243   20.589189   21.812745 C.3        1 MOL1        -0.2320
      18    H12     17.022052   20.426787   22.565756 H          1 MOL1         0.1008
      19    H13     17.862496   21.667641   21.616279 H          1 MOL1         0.1008
      20    H14     17.492375   20.094127   20.883809 H          1 MOL1         0.1008
@<TRIPOS>BOND
    1     1     2    1
    2     1     3    1
    3     1     4    1
    4     1     5    1
    5     5     6    1
    6     5     7    1
    7     5     8    1
    8     8     9    1
    9     8    10    1
   10     8    11    1
   11    11    12    1
   12    11    13    1
   13    11    14    1
   14    14    15    1
   15    14    16    1
   16    14    17    1
   17    17    18    1
   18    17    19    1
   19    17    20    1
@<TRIPOS>SUBSTRUCTURE
       1 MOL1            1 RESIDUE      1      MOL     
@<SCITEGIC>MOL_PROPERTY
VConf Rank
SciTegic.value.IntegerValue
442

@<SCITEGIC>MOL_PROPERTY
Conf_Id
SciTegic.value.IntegerValue
26

@<SCITEGIC>MOL_PROPERTY
Delta U+W
SciTegic.value.DoubleValue
2.809

@<SCITEGIC>MOL_PROPERTY
U+W
SciTegic.value.DoubleValue
-8.969

@<SCITEGIC>MOL_PROPERTY
Grad RMS
SciTegic.value.DoubleValue
0.000000

@<SCITEGIC>MOL_PROPERTY
U
SciTegic.value.DoubleValue
49.216

@<SCITEGIC>MOL_PROPERTY
W
SciTegic.value.DoubleValue
-58.185

@<SCITEGIC>MOL_PROPERTY
W(PB)
SciTegic.value.DoubleValue
-60.088

@<SCITEGIC>MOL_PROPERTY
W(SA)
SciTegic.value.DoubleValue
1.903

@<SCITEGIC>MOL_PROPERTY
Valence
SciTegic.value.DoubleValue
2.929

@<SCITEGIC>MOL_PROPERTY
Coulomb
SciTegic.value.DoubleValue
46.006

@<SCITEGIC>MOL_PROPERTY
VdW
SciTegic.value.DoubleValue
0.281

@<SCITEGIC>MOL_PROPERTY
VdW6
SciTegic.value.DoubleValue
-4.909

@<SCITEGIC>MOL_PROPERTY
VdW12
SciTegic.value.DoubleValue
5.190

@<SCITEGIC>MOL_PROPERTY
Bond
SciTegic.value.DoubleValue
0.156

@<SCITEGIC>MOL_PROPERTY
Angle
SciTegic.value.DoubleValue
0.974

@<SCITEGIC>MOL_PROPERTY
Pdih
SciTegic.value.DoubleValue
1.799

@<SCITEGIC>MOL_PROPERTY
Idih
SciTegic.value.DoubleValue
0.000

@<SCITEGIC>MOL_PROPERTY
Tether
SciTegic.value.DoubleValue
0.000

@<TRIPOS>MOLECULE
guest-s11_confgen4.mol2 : confsearch ligand conformer 443
          20          19           1
SMALL
USER_CHARGES
 
@<TRIPOS>ATOM
       1    N1      19.071538   20.527202   20.759168 N.4        1 MOL1        -0.5919
       2    H1      18.429507   20.490361   21.556274 H          1 MOL1         0.3682
       3    H2      19.386888   21.498007   20.669006 H          1 MOL1         0.3682
       4    H3      18.522173   20.312764   19.920405 H          1 MOL1         0.3682
       5    C1      20.234953   19.570176   20.931124 C.3        1 MOL1         0.0252
       6    H4      20.858192   19.639271   20.035408 H          1 MOL1         0.0971
       7    H5      19.834284   18.554699   20.987706 H          1 MOL1         0.0971
       8    C2      21.096171   19.859337   22.177311 C.3        1 MOL1        -0.1369
       9    H6      21.953015   19.173534   22.182089 H          1 MOL1         0.0997
      10    H7      21.520943   20.868442   22.094163 H          1 MOL1         0.0997
      11    C3      20.325301   19.738881   23.518297 C.3        1 MOL1        -0.1329
      12    H8      19.572123   20.536022   23.577429 H          1 MOL1         0.0997
      13    H9      21.023253   19.928211   24.345471 H          1 MOL1         0.0997
      14    C4      19.629577   18.372777   23.747993 C.3        1 MOL1        -0.1305
      15    H10     19.099890   18.406457   24.710359 H          1 MOL1         0.0997
      16    H11     18.857494   18.205959   22.984739 H          1 MOL1         0.0997
      17    C5      20.611657   17.179394   23.762106 C.3        1 MOL1        -0.2320
      18    H12     21.404357   17.329229   24.506511 H          1 MOL1         0.1008
      19    H13     20.084529   16.250577   24.015723 H          1 MOL1         0.1008
      20    H14     21.083029   17.034093   22.782158 H          1 MOL1         0.1008
@<TRIPOS>BOND
    1     1     2    1
    2     1     3    1
    3     1     4    1
    4     1     5    1
    5     5     6    1
    6     5     7    1
    7     5     8    1
    8     8     9    1
    9     8    10    1
   10     8    11    1
   11    11    12    1
   12    11    13    1
   13    11    14    1
   14    14    15    1
   15    14    16    1
   16    14    17    1
   17    17    18    1
   18    17    19    1
   19    17    20    1
@<TRIPOS>SUBSTRUCTURE
       1 MOL1            1 RESIDUE      1      MOL     
@<SCITEGIC>MOL_PROPERTY
VConf Rank
SciTegic.value.IntegerValue
443

@<SCITEGIC>MOL_PROPERTY
Conf_Id
SciTegic.value.IntegerValue
2

@<SCITEGIC>MOL_PROPERTY
Delta U+W
SciTegic.value.DoubleValue
0.994

@<SCITEGIC>MOL_PROPERTY
U+W
SciTegic.value.DoubleValue
-10.784

@<SCITEGIC>MOL_PROPERTY
Grad RMS
SciTegic.value.DoubleValue
0.000000

@<SCITEGIC>MOL_PROPERTY
U
SciTegic.value.DoubleValue
47.562

@<SCITEGIC>MOL_PROPERTY
W
SciTegic.value.DoubleValue
-58.346

@<SCITEGIC>MOL_PROPERTY
W(PB)
SciTegic.value.DoubleValue
-60.221

@<SCITEGIC>MOL_PROPERTY
W(SA)
SciTegic.value.DoubleValue
1.875

@<SCITEGIC>MOL_PROPERTY
Valence
SciTegic.value.DoubleValue
2.149

@<SCITEGIC>MOL_PROPERTY
Coulomb
SciTegic.value.DoubleValue
45.034

@<SCITEGIC>MOL_PROPERTY
VdW
SciTegic.value.DoubleValue
0.378

@<SCITEGIC>MOL_PROPERTY
VdW6
SciTegic.value.DoubleValue
-5.599

@<SCITEGIC>MOL_PROPERTY
VdW12
SciTegic.value.DoubleValue
5.977

@<SCITEGIC>MOL_PROPERTY
Bond
SciTegic.value.DoubleValue
0.185

@<SCITEGIC>MOL_PROPERTY
Angle
SciTegic.value.DoubleValue
0.935

@<SCITEGIC>MOL_PROPERTY
Pdih
SciTegic.value.DoubleValue
1.028

@<SCITEGIC>MOL_PROPERTY
Idih
SciTegic.value.DoubleValue
0.000

@<SCITEGIC>MOL_PROPERTY
Tether
SciTegic.value.DoubleValue
0.000

@<TRIPOS>MOLECULE
guest-s11_confgen4.mol2 : confsearch ligand conformer 444
          20          19           1
SMALL
USER_CHARGES
 
@<TRIPOS>ATOM
       1    N1      19.339565   20.834889   23.909064 N.4        1 MOL1        -0.5919
       2    H1      19.667032   21.788486   23.726150 H          1 MOL1         0.3682
       3    H2      18.603026   20.631800   23.227005 H          1 MOL1         0.3682
       4    H3      18.898346   20.843254   24.834572 H          1 MOL1         0.3682
       5    C1      20.469160   19.826388   23.832018 C.3        1 MOL1         0.0252
       6    H4      20.061085   18.840189   24.068278 H          1 MOL1         0.0971
       7    H5      21.199492   20.084780   24.603612 H          1 MOL1         0.0971
       8    C2      21.169195   19.783802   22.458546 C.3        1 MOL1        -0.1369
       9    H6      21.604498   20.769288   22.246490 H          1 MOL1         0.0997
      10    H7      22.016380   19.088346   22.514685 H          1 MOL1         0.0997
      11    C3      20.236663   19.375060   21.287946 C.3        1 MOL1        -0.1329
      12    H8      20.826683   19.339833   20.361752 H          1 MOL1         0.0997
      13    H9      19.484889   20.160176   21.130993 H          1 MOL1         0.0997
      14    C4      19.512764   18.017368   21.476837 C.3        1 MOL1        -0.1305
      15    H10     18.841175   18.061859   22.344872 H          1 MOL1         0.0997
      16    H11     18.867436   17.839812   20.605129 H          1 MOL1         0.0997
      17    C5      20.481063   16.822558   21.630667 C.3        1 MOL1        -0.2320
      18    H12     21.070301   16.897846   22.553019 H          1 MOL1         0.1008
      19    H13     19.923055   15.878191   21.671708 H          1 MOL1         0.1008
      20    H14     21.175400   16.765348   20.782384 H          1 MOL1         0.1008
@<TRIPOS>BOND
    1     1     2    1
    2     1     3    1
    3     1     4    1
    4     1     5    1
    5     5     6    1
    6     5     7    1
    7     5     8    1
    8     8     9    1
    9     8    10    1
   10     8    11    1
   11    11    12    1
   12    11    13    1
   13    11    14    1
   14    14    15    1
   15    14    16    1
   16    14    17    1
   17    17    18    1
   18    17    19    1
   19    17    20    1
@<TRIPOS>SUBSTRUCTURE
       1 MOL1            1 RESIDUE      1      MOL     
@<SCITEGIC>MOL_PROPERTY
VConf Rank
SciTegic.value.IntegerValue
444

@<SCITEGIC>MOL_PROPERTY
Conf_Id
SciTegic.value.IntegerValue
1

@<SCITEGIC>MOL_PROPERTY
Delta U+W
SciTegic.value.DoubleValue
1.032

@<SCITEGIC>MOL_PROPERTY
U+W
SciTegic.value.DoubleValue
-10.746

@<SCITEGIC>MOL_PROPERTY
Grad RMS
SciTegic.value.DoubleValue
0.000000

@<SCITEGIC>MOL_PROPERTY
U
SciTegic.value.DoubleValue
47.562

@<SCITEGIC>MOL_PROPERTY
W
SciTegic.value.DoubleValue
-58.308

@<SCITEGIC>MOL_PROPERTY
W(PB)
SciTegic.value.DoubleValue
-60.184

@<SCITEGIC>MOL_PROPERTY
W(SA)
SciTegic.value.DoubleValue
1.877

@<SCITEGIC>MOL_PROPERTY
Valence
SciTegic.value.DoubleValue
2.149

@<SCITEGIC>MOL_PROPERTY
Coulomb
SciTegic.value.DoubleValue
45.035

@<SCITEGIC>MOL_PROPERTY
VdW
SciTegic.value.DoubleValue
0.378

@<SCITEGIC>MOL_PROPERTY
VdW6
SciTegic.value.DoubleValue
-5.599

@<SCITEGIC>MOL_PROPERTY
VdW12
SciTegic.value.DoubleValue
5.978

@<SCITEGIC>MOL_PROPERTY
Bond
SciTegic.value.DoubleValue
0.185

@<SCITEGIC>MOL_PROPERTY
Angle
SciTegic.value.DoubleValue
0.935

@<SCITEGIC>MOL_PROPERTY
Pdih
SciTegic.value.DoubleValue
1.028

@<SCITEGIC>MOL_PROPERTY
Idih
SciTegic.value.DoubleValue
0.000

@<SCITEGIC>MOL_PROPERTY
Tether
SciTegic.value.DoubleValue
0.000

@<TRIPOS>MOLECULE
guest-s11_confgen4.mol2 : confsearch ligand conformer 445
          20          19           1
SMALL
USER_CHARGES
 
@<TRIPOS>ATOM
       1    N1      20.083036   17.202630   23.814275 N.4        1 MOL1        -0.5919
       2    H1      20.942889   16.702872   24.061227 H          1 MOL1         0.3682
       3    H2      20.021806   18.020946   24.426887 H          1 MOL1         0.3682
       4    H3      19.300095   16.587033   24.057972 H          1 MOL1         0.3682
       5    C1      20.057754   17.592434   22.348952 C.3        1 MOL1         0.0252
       6    H4      19.107214   18.089735   22.149742 H          1 MOL1         0.0971
       7    H5      20.083389   16.669524   21.763200 H          1 MOL1         0.0971
       8    C2      21.235774   18.494516   21.923237 C.3        1 MOL1        -0.1369
       9    H6      22.170037   17.963393   22.148803 H          1 MOL1         0.0997
      10    H7      21.219455   18.623468   20.832950 H          1 MOL1         0.0997
      11    C3      21.270540   19.885715   22.611480 C.3        1 MOL1        -0.1329
      12    H8      22.306082   20.251725   22.578100 H          1 MOL1         0.0997
      13    H9      21.026730   19.796544   23.677936 H          1 MOL1         0.0997
      14    C4      20.375982   20.967024   21.952262 C.3        1 MOL1        -0.1305
      15    H10     20.555216   21.922062   22.465804 H          1 MOL1         0.0997
      16    H11     20.687938   21.121099   20.909800 H          1 MOL1         0.0997
      17    C5      18.862069   20.663546   21.995841 C.3        1 MOL1        -0.2320
      18    H12     18.538416   20.392190   23.008942 H          1 MOL1         0.1008
      19    H13     18.286850   21.545393   21.685361 H          1 MOL1         0.1008
      20    H14     18.598016   19.848915   21.311220 H          1 MOL1         0.1008
@<TRIPOS>BOND
    1     1     2    1
    2     1     3    1
    3     1     4    1
    4     1     5    1
    5     5     6    1
    6     5     7    1
    7     5     8    1
    8     8     9    1
    9     8    10    1
   10     8    11    1
   11    11    12    1
   12    11    13    1
   13    11    14    1
   14    14    15    1
   15    14    16    1
   16    14    17    1
   17    17    18    1
   18    17    19    1
   19    17    20    1
@<TRIPOS>SUBSTRUCTURE
       1 MOL1            1 RESIDUE      1      MOL     
@<SCITEGIC>MOL_PROPERTY
VConf Rank
SciTegic.value.IntegerValue
445

@<SCITEGIC>MOL_PROPERTY
Conf_Id
SciTegic.value.IntegerValue
80

@<SCITEGIC>MOL_PROPERTY
Delta U+W
SciTegic.value.DoubleValue
2.920

@<SCITEGIC>MOL_PROPERTY
U+W
SciTegic.value.DoubleValue
-8.857

@<SCITEGIC>MOL_PROPERTY
Grad RMS
SciTegic.value.DoubleValue
0.000000

@<SCITEGIC>MOL_PROPERTY
U
SciTegic.value.DoubleValue
49.434

@<SCITEGIC>MOL_PROPERTY
W
SciTegic.value.DoubleValue
-58.292

@<SCITEGIC>MOL_PROPERTY
W(PB)
SciTegic.value.DoubleValue
-60.170

@<SCITEGIC>MOL_PROPERTY
W(SA)
SciTegic.value.DoubleValue
1.879

@<SCITEGIC>MOL_PROPERTY
Valence
SciTegic.value.DoubleValue
3.798

@<SCITEGIC>MOL_PROPERTY
Coulomb
SciTegic.value.DoubleValue
45.253

@<SCITEGIC>MOL_PROPERTY
VdW
SciTegic.value.DoubleValue
0.384

@<SCITEGIC>MOL_PROPERTY
VdW6
SciTegic.value.DoubleValue
-5.595

@<SCITEGIC>MOL_PROPERTY
VdW12
SciTegic.value.DoubleValue
5.979

@<SCITEGIC>MOL_PROPERTY
Bond
SciTegic.value.DoubleValue
0.198

@<SCITEGIC>MOL_PROPERTY
Angle
SciTegic.value.DoubleValue
1.368

@<SCITEGIC>MOL_PROPERTY
Pdih
SciTegic.value.DoubleValue
2.231

@<SCITEGIC>MOL_PROPERTY
Idih
SciTegic.value.DoubleValue
0.000

@<SCITEGIC>MOL_PROPERTY
Tether
SciTegic.value.DoubleValue
0.000

@<TRIPOS>MOLECULE
guest-s11_confgen4.mol2 : confsearch ligand conformer 446
          20          19           1
SMALL
USER_CHARGES
 
@<TRIPOS>ATOM
       1    N1      21.387717   20.854331   23.626286 N.4        1 MOL1        -0.5919
       2    H1      22.334374   20.642433   23.956481 H          1 MOL1         0.3682
       3    H2      21.264646   21.869181   23.705529 H          1 MOL1         0.3682
       4    H3      20.733431   20.421551   24.284540 H          1 MOL1         0.3682
       5    C1      21.163080   20.369090   22.207188 C.3        1 MOL1         0.0252
       6    H4      21.865425   20.904098   21.562206 H          1 MOL1         0.0971
       7    H5      20.152245   20.653430   21.910744 H          1 MOL1         0.0971
       8    C2      21.368374   18.849748   22.027797 C.3        1 MOL1        -0.1369
       9    H6      21.317312   18.599530   20.959901 H          1 MOL1         0.0997
      10    H7      22.390658   18.604600   22.345061 H          1 MOL1         0.0997
      11    C3      20.370701   17.961384   22.818862 C.3        1 MOL1        -0.1329
      12    H8      20.212362   18.361376   23.828642 H          1 MOL1         0.0997
      13    H9      20.838412   16.977750   22.964240 H          1 MOL1         0.0997
      14    C4      19.005621   17.726354   22.122186 C.3        1 MOL1        -0.1305
      15    H10     19.164464   17.237232   21.150945 H          1 MOL1         0.0997
      16    H11     18.427809   17.014516   22.728296 H          1 MOL1         0.0997
      17    C5      18.157346   19.001671   21.922375 C.3        1 MOL1        -0.2320
      18    H12     18.583864   19.647625   21.145922 H          1 MOL1         0.1008
      19    H13     17.141488   18.737968   21.600785 H          1 MOL1         0.1008
      20    H14     18.075202   19.576378   22.853892 H          1 MOL1         0.1008
@<TRIPOS>BOND
    1     1     2    1
    2     1     3    1
    3     1     4    1
    4     1     5    1
    5     5     6    1
    6     5     7    1
    7     5     8    1
    8     8     9    1
    9     8    10    1
   10     8    11    1
   11    11    12    1
   12    11    13    1
   13    11    14    1
   14    14    15    1
   15    14    16    1
   16    14    17    1
   17    17    18    1
   18    17    19    1
   19    17    20    1
@<TRIPOS>SUBSTRUCTURE
       1 MOL1            1 RESIDUE      1      MOL     
@<SCITEGIC>MOL_PROPERTY
VConf Rank
SciTegic.value.IntegerValue
446

@<SCITEGIC>MOL_PROPERTY
Conf_Id
SciTegic.value.IntegerValue
65

@<SCITEGIC>MOL_PROPERTY
Delta U+W
SciTegic.value.DoubleValue
2.949

@<SCITEGIC>MOL_PROPERTY
U+W
SciTegic.value.DoubleValue
-8.829

@<SCITEGIC>MOL_PROPERTY
Grad RMS
SciTegic.value.DoubleValue
0.000000

@<SCITEGIC>MOL_PROPERTY
U
SciTegic.value.DoubleValue
49.435

@<SCITEGIC>MOL_PROPERTY
W
SciTegic.value.DoubleValue
-58.263

@<SCITEGIC>MOL_PROPERTY
W(PB)
SciTegic.value.DoubleValue
-60.125

@<SCITEGIC>MOL_PROPERTY
W(SA)
SciTegic.value.DoubleValue
1.862

@<SCITEGIC>MOL_PROPERTY
Valence
SciTegic.value.DoubleValue
3.797

@<SCITEGIC>MOL_PROPERTY
Coulomb
SciTegic.value.DoubleValue
45.253

@<SCITEGIC>MOL_PROPERTY
VdW
SciTegic.value.DoubleValue
0.384

@<SCITEGIC>MOL_PROPERTY
VdW6
SciTegic.value.DoubleValue
-5.596

@<SCITEGIC>MOL_PROPERTY
VdW12
SciTegic.value.DoubleValue
5.980

@<SCITEGIC>MOL_PROPERTY
Bond
SciTegic.value.DoubleValue
0.198

@<SCITEGIC>MOL_PROPERTY
Angle
SciTegic.value.DoubleValue
1.369

@<SCITEGIC>MOL_PROPERTY
Pdih
SciTegic.value.DoubleValue
2.230

@<SCITEGIC>MOL_PROPERTY
Idih
SciTegic.value.DoubleValue
0.000

@<SCITEGIC>MOL_PROPERTY
Tether
SciTegic.value.DoubleValue
0.000

@<TRIPOS>MOLECULE
guest-s11_confgen4.mol2 : confsearch ligand conformer 447
          20          19           1
SMALL
USER_CHARGES
 
@<TRIPOS>ATOM
       1    N1      19.567653   20.562543   21.103954 N.4        1 MOL1        -0.5919
       2    H1      19.630152   20.682942   20.087451 H          1 MOL1         0.3682
       3    H2      19.022902   19.712516   21.278386 H          1 MOL1         0.3682
       4    H3      19.023801   21.352770   21.464748 H          1 MOL1         0.3682
       5    C1      20.938459   20.482651   21.747431 C.3        1 MOL1         0.0252
       6    H4      21.453308   21.419995   21.519755 H          1 MOL1         0.0971
       7    H5      21.497596   19.666833   21.281590 H          1 MOL1         0.0971
       8    C2      20.902356   20.286765   23.276723 C.3        1 MOL1        -0.1369
       9    H6      21.855527   20.651210   23.682254 H          1 MOL1         0.0997
      10    H7      20.126796   20.928451   23.715535 H          1 MOL1         0.0997
      11    C3      20.715849   18.820563   23.751408 C.3        1 MOL1        -0.1329
      12    H8      20.764101   18.822420   24.849221 H          1 MOL1         0.0997
      13    H9      21.567249   18.209069   23.421772 H          1 MOL1         0.0997
      14    C4      19.383913   18.148394   23.331105 C.3        1 MOL1        -0.1305
      15    H10     19.055063   17.485103   24.143607 H          1 MOL1         0.0997
      16    H11     18.590532   18.900430   23.225033 H          1 MOL1         0.0997
      17    C5      19.512730   17.294654   22.047223 C.3        1 MOL1        -0.2320
      18    H12     19.905573   17.867327   21.200277 H          1 MOL1         0.1008
      19    H13     20.190782   16.447382   22.213650 H          1 MOL1         0.1008
      20    H14     18.537082   16.884202   21.755983 H          1 MOL1         0.1008
@<TRIPOS>BOND
    1     1     2    1
    2     1     3    1
    3     1     4    1
    4     1     5    1
    5     5     6    1
    6     5     7    1
    7     5     8    1
    8     8     9    1
    9     8    10    1
   10     8    11    1
   11    11    12    1
   12    11    13    1
   13    11    14    1
   14    14    15    1
   15    14    16    1
   16    14    17    1
   17    17    18    1
   18    17    19    1
   19    17    20    1
@<TRIPOS>SUBSTRUCTURE
       1 MOL1            1 RESIDUE      1      MOL     
@<SCITEGIC>MOL_PROPERTY
VConf Rank
SciTegic.value.IntegerValue
447

@<SCITEGIC>MOL_PROPERTY
Conf_Id
SciTegic.value.IntegerValue
77

@<SCITEGIC>MOL_PROPERTY
Delta U+W
SciTegic.value.DoubleValue
5.366

@<SCITEGIC>MOL_PROPERTY
U+W
SciTegic.value.DoubleValue
-6.412

@<SCITEGIC>MOL_PROPERTY
Grad RMS
SciTegic.value.DoubleValue
0.000000

@<SCITEGIC>MOL_PROPERTY
U
SciTegic.value.DoubleValue
51.542

@<SCITEGIC>MOL_PROPERTY
W
SciTegic.value.DoubleValue
-57.954

@<SCITEGIC>MOL_PROPERTY
W(PB)
SciTegic.value.DoubleValue
-59.811

@<SCITEGIC>MOL_PROPERTY
W(SA)
SciTegic.value.DoubleValue
1.857

@<SCITEGIC>MOL_PROPERTY
Valence
SciTegic.value.DoubleValue
5.347

@<SCITEGIC>MOL_PROPERTY
Coulomb
SciTegic.value.DoubleValue
45.870

@<SCITEGIC>MOL_PROPERTY
VdW
SciTegic.value.DoubleValue
0.325

@<SCITEGIC>MOL_PROPERTY
VdW6
SciTegic.value.DoubleValue
-6.161

@<SCITEGIC>MOL_PROPERTY
VdW12
SciTegic.value.DoubleValue
6.486

@<SCITEGIC>MOL_PROPERTY
Bond
SciTegic.value.DoubleValue
0.201

@<SCITEGIC>MOL_PROPERTY
Angle
SciTegic.value.DoubleValue
1.484

@<SCITEGIC>MOL_PROPERTY
Pdih
SciTegic.value.DoubleValue
3.662

@<SCITEGIC>MOL_PROPERTY
Idih
SciTegic.value.DoubleValue
0.000

@<SCITEGIC>MOL_PROPERTY
Tether
SciTegic.value.DoubleValue
0.000

@<TRIPOS>MOLECULE
guest-s11_confgen4.mol2 : confsearch ligand conformer 448
          20          19           1
SMALL
USER_CHARGES
 
@<TRIPOS>ATOM
       1    N1      21.351207   18.180500   21.093207 N.4        1 MOL1        -0.5919
       2    H1      20.954386   18.145716   20.148893 H          1 MOL1         0.3682
       3    H2      21.450940   19.168403   21.345850 H          1 MOL1         0.3682
       4    H3      22.294589   17.782591   21.035051 H          1 MOL1         0.3682
       5    C1      20.487088   17.438221   22.094148 C.3        1 MOL1         0.0252
       6    H4      20.987074   17.450494   23.066292 H          1 MOL1         0.0971
       7    H5      20.427388   16.399957   21.756563 H          1 MOL1         0.0971
       8    C2      19.059673   18.005595   22.231921 C.3        1 MOL1        -0.1369
       9    H6      18.660442   18.252793   21.239290 H          1 MOL1         0.0997
      10    H7      18.417974   17.203515   22.620126 H          1 MOL1         0.0997
      11    C3      18.921473   19.224460   23.183305 C.3        1 MOL1        -0.1329
      12    H8      19.195289   18.933445   24.206926 H          1 MOL1         0.0997
      13    H9      17.855191   19.486240   23.228454 H          1 MOL1         0.0997
      14    C4      19.708831   20.491358   22.761929 C.3        1 MOL1        -0.1305
      15    H10     19.816181   20.531636   21.669630 H          1 MOL1         0.0997
      16    H11     19.117347   21.377263   23.033182 H          1 MOL1         0.0997
      17    C5      21.085262   20.611025   23.458303 C.3        1 MOL1        -0.2320
      18    H12     21.630113   21.490040   23.089992 H          1 MOL1         0.1008
      19    H13     20.960113   20.730750   24.542428 H          1 MOL1         0.1008
      20    H14     21.715313   19.729868   23.296467 H          1 MOL1         0.1008
@<TRIPOS>BOND
    1     1     2    1
    2     1     3    1
    3     1     4    1
    4     1     5    1
    5     5     6    1
    6     5     7    1
    7     5     8    1
    8     8     9    1
    9     8    10    1
   10     8    11    1
   11    11    12    1
   12    11    13    1
   13    11    14    1
   14    14    15    1
   15    14    16    1
   16    14    17    1
   17    17    18    1
   18    17    19    1
   19    17    20    1
@<TRIPOS>SUBSTRUCTURE
       1 MOL1            1 RESIDUE      1      MOL     
@<SCITEGIC>MOL_PROPERTY
VConf Rank
SciTegic.value.IntegerValue
448

@<SCITEGIC>MOL_PROPERTY
Conf_Id
SciTegic.value.IntegerValue
67

@<SCITEGIC>MOL_PROPERTY
Delta U+W
SciTegic.value.DoubleValue
5.353

@<SCITEGIC>MOL_PROPERTY
U+W
SciTegic.value.DoubleValue
-6.425

@<SCITEGIC>MOL_PROPERTY
Grad RMS
SciTegic.value.DoubleValue
0.000000

@<SCITEGIC>MOL_PROPERTY
U
SciTegic.value.DoubleValue
51.541

@<SCITEGIC>MOL_PROPERTY
W
SciTegic.value.DoubleValue
-57.966

@<SCITEGIC>MOL_PROPERTY
W(PB)
SciTegic.value.DoubleValue
-59.821

@<SCITEGIC>MOL_PROPERTY
W(SA)
SciTegic.value.DoubleValue
1.855

@<SCITEGIC>MOL_PROPERTY
Valence
SciTegic.value.DoubleValue
5.347

@<SCITEGIC>MOL_PROPERTY
Coulomb
SciTegic.value.DoubleValue
45.870

@<SCITEGIC>MOL_PROPERTY
VdW
SciTegic.value.DoubleValue
0.325

@<SCITEGIC>MOL_PROPERTY
VdW6
SciTegic.value.DoubleValue
-6.161

@<SCITEGIC>MOL_PROPERTY
VdW12
SciTegic.value.DoubleValue
6.486

@<SCITEGIC>MOL_PROPERTY
Bond
SciTegic.value.DoubleValue
0.201

@<SCITEGIC>MOL_PROPERTY
Angle
SciTegic.value.DoubleValue
1.485

@<SCITEGIC>MOL_PROPERTY
Pdih
SciTegic.value.DoubleValue
3.662

@<SCITEGIC>MOL_PROPERTY
Idih
SciTegic.value.DoubleValue
0.000

@<SCITEGIC>MOL_PROPERTY
Tether
SciTegic.value.DoubleValue
0.000

@<TRIPOS>MOLECULE
guest-s11_confgen4.mol2 : confsearch ligand conformer 449
          20          19           1
SMALL
USER_CHARGES
 
@<TRIPOS>ATOM
       1    N1      19.615209   22.020108   21.166139 N.4        1 MOL1        -0.5919
       2    H1      20.229144   22.566970   21.778033 H          1 MOL1         0.3682
       3    H2      19.664246   22.448993   20.235949 H          1 MOL1         0.3682
       4    H3      18.656903   22.153067   21.504309 H          1 MOL1         0.3682
       5    C1      20.006360   20.556425   21.132669 C.3        1 MOL1         0.0252
       6    H4      21.022818   20.487691   20.735673 H          1 MOL1         0.0971
       7    H5      19.332554   20.042710   20.441585 H          1 MOL1         0.0971
       8    C2      19.943527   19.881721   22.514730 C.3        1 MOL1        -0.1369
       9    H6      20.609490   20.410581   23.209618 H          1 MOL1         0.0997
      10    H7      18.925045   19.967127   22.916560 H          1 MOL1         0.0997
      11    C3      20.349021   18.393022   22.436749 C.3        1 MOL1        -0.1329
      12    H8      21.366449   18.311032   22.029432 H          1 MOL1         0.0997
      13    H9      19.683974   17.868081   21.736791 H          1 MOL1         0.0997
      14    C4      20.289704   17.705108   23.819063 C.3        1 MOL1        -0.1305
      15    H10     20.955214   18.225880   24.521872 H          1 MOL1         0.0997
      16    H11     19.272967   17.782898   24.229236 H          1 MOL1         0.0997
      17    C5      20.695688   16.218063   23.736290 C.3        1 MOL1        -0.2320
      18    H12     21.721744   16.108965   23.361425 H          1 MOL1         0.1008
      19    H13     20.647445   15.747255   24.726773 H          1 MOL1         0.1008
      20    H14     20.026289   15.662490   23.066621 H          1 MOL1         0.1008
@<TRIPOS>BOND
    1     1     2    1
    2     1     3    1
    3     1     4    1
    4     1     5    1
    5     5     6    1
    6     5     7    1
    7     5     8    1
    8     8     9    1
    9     8    10    1
   10     8    11    1
   11    11    12    1
   12    11    13    1
   13    11    14    1
   14    14    15    1
   15    14    16    1
   16    14    17    1
   17    17    18    1
   18    17    19    1
   19    17    20    1
@<TRIPOS>SUBSTRUCTURE
       1 MOL1            1 RESIDUE      1      MOL     
@<SCITEGIC>MOL_PROPERTY
VConf Rank
SciTegic.value.IntegerValue
449

@<SCITEGIC>MOL_PROPERTY
Conf_Id
SciTegic.value.IntegerValue
72

@<SCITEGIC>MOL_PROPERTY
Delta U+W
SciTegic.value.DoubleValue
0.000

@<SCITEGIC>MOL_PROPERTY
U+W
SciTegic.value.DoubleValue
-11.778

@<SCITEGIC>MOL_PROPERTY
Grad RMS
SciTegic.value.DoubleValue
0.000000

@<SCITEGIC>MOL_PROPERTY
U
SciTegic.value.DoubleValue
45.772

@<SCITEGIC>MOL_PROPERTY
W
SciTegic.value.DoubleValue
-57.550

@<SCITEGIC>MOL_PROPERTY
W(PB)
SciTegic.value.DoubleValue
-59.511

@<SCITEGIC>MOL_PROPERTY
W(SA)
SciTegic.value.DoubleValue
1.961

@<SCITEGIC>MOL_PROPERTY
Valence
SciTegic.value.DoubleValue
1.299

@<SCITEGIC>MOL_PROPERTY
Coulomb
SciTegic.value.DoubleValue
44.177

@<SCITEGIC>MOL_PROPERTY
VdW
SciTegic.value.DoubleValue
0.297

@<SCITEGIC>MOL_PROPERTY
VdW6
SciTegic.value.DoubleValue
-3.490

@<SCITEGIC>MOL_PROPERTY
VdW12
SciTegic.value.DoubleValue
3.786

@<SCITEGIC>MOL_PROPERTY
Bond
SciTegic.value.DoubleValue
0.096

@<SCITEGIC>MOL_PROPERTY
Angle
SciTegic.value.DoubleValue
0.381

@<SCITEGIC>MOL_PROPERTY
Pdih
SciTegic.value.DoubleValue
0.822

@<SCITEGIC>MOL_PROPERTY
Idih
SciTegic.value.DoubleValue
0.000

@<SCITEGIC>MOL_PROPERTY
Tether
SciTegic.value.DoubleValue
0.000

@<TRIPOS>MOLECULE
guest-s11_confgen4.mol2 : confsearch ligand conformer 450
          20          19           1
SMALL
USER_CHARGES
 
@<TRIPOS>ATOM
       1    N1      19.788635   18.057094   25.251491 N.4        1 MOL1        -0.5919
       2    H1      19.137608   18.806050   25.507549 H          1 MOL1         0.3682
       3    H2      19.223876   17.238587   25.003586 H          1 MOL1         0.3682
       4    H3      20.309303   17.812760   26.100484 H          1 MOL1         0.3682
       5    C1      20.712716   18.470412   24.123743 C.3        1 MOL1         0.0252
       6    H4      21.395447   17.639726   23.925418 H          1 MOL1         0.0971
       7    H5      21.302432   19.324969   24.466485 H          1 MOL1         0.0971
       8    C2      19.962562   18.843694   22.832543 C.3        1 MOL1        -0.1369
       9    H6      19.359383   17.988176   22.500770 H          1 MOL1         0.0997
      10    H7      19.268085   19.665676   23.047283 H          1 MOL1         0.0997
      11    C3      20.943465   19.256057   21.709638 C.3        1 MOL1        -0.1329
      12    H8      21.677313   18.451372   21.562361 H          1 MOL1         0.0997
      13    H9      21.514750   20.140729   22.023607 H          1 MOL1         0.0997
      14    C4      20.248369   19.542306   20.356281 C.3        1 MOL1        -0.1305
      15    H10     21.020008   19.723344   19.594877 H          1 MOL1         0.0997
      16    H11     19.695152   18.651716   20.026619 H          1 MOL1         0.0997
      17    C5      19.296171   20.759266   20.399373 C.3        1 MOL1        -0.2320
      18    H12     19.818616   21.657520   20.753216 H          1 MOL1         0.1008
      19    H13     18.901589   20.973823   19.397762 H          1 MOL1         0.1008
      20    H14     18.438549   20.577620   21.058852 H          1 MOL1         0.1008
@<TRIPOS>BOND
    1     1     2    1
    2     1     3    1
    3     1     4    1
    4     1     5    1
    5     5     6    1
    6     5     7    1
    7     5     8    1
    8     8     9    1
    9     8    10    1
   10     8    11    1
   11    11    12    1
   12    11    13    1
   13    11    14    1
   14    14    15    1
   15    14    16    1
   16    14    17    1
   17    17    18    1
   18    17    19    1
   19    17    20    1
@<TRIPOS>SUBSTRUCTURE
       1 MOL1            1 RESIDUE      1      MOL     
@<SCITEGIC>MOL_PROPERTY
VConf Rank
SciTegic.value.IntegerValue
450

@<SCITEGIC>MOL_PROPERTY
Conf_Id
SciTegic.value.IntegerValue
42

@<SCITEGIC>MOL_PROPERTY
Delta U+W
SciTegic.value.DoubleValue
0.508

@<SCITEGIC>MOL_PROPERTY
U+W
SciTegic.value.DoubleValue
-11.270

@<SCITEGIC>MOL_PROPERTY
Grad RMS
SciTegic.value.DoubleValue
0.000000

@<SCITEGIC>MOL_PROPERTY
U
SciTegic.value.DoubleValue
46.486

@<SCITEGIC>MOL_PROPERTY
W
SciTegic.value.DoubleValue
-57.756

@<SCITEGIC>MOL_PROPERTY
W(PB)
SciTegic.value.DoubleValue
-59.705

@<SCITEGIC>MOL_PROPERTY
W(SA)
SciTegic.value.DoubleValue
1.949

@<SCITEGIC>MOL_PROPERTY
Valence
SciTegic.value.DoubleValue
1.806

@<SCITEGIC>MOL_PROPERTY
Coulomb
SciTegic.value.DoubleValue
44.248

@<SCITEGIC>MOL_PROPERTY
VdW
SciTegic.value.DoubleValue
0.433

@<SCITEGIC>MOL_PROPERTY
VdW6
SciTegic.value.DoubleValue
-4.089

@<SCITEGIC>MOL_PROPERTY
VdW12
SciTegic.value.DoubleValue
4.522

@<SCITEGIC>MOL_PROPERTY
Bond
SciTegic.value.DoubleValue
0.131

@<SCITEGIC>MOL_PROPERTY
Angle
SciTegic.value.DoubleValue
0.628

@<SCITEGIC>MOL_PROPERTY
Pdih
SciTegic.value.DoubleValue
1.047

@<SCITEGIC>MOL_PROPERTY
Idih
SciTegic.value.DoubleValue
0.000

@<SCITEGIC>MOL_PROPERTY
Tether
SciTegic.value.DoubleValue
0.000

@<TRIPOS>MOLECULE
guest-s11_confgen4.mol2 : confsearch ligand conformer 451
          20          19           1
SMALL
USER_CHARGES
 
@<TRIPOS>ATOM
       1    N1      21.656009   20.273957   20.180366 N.4        1 MOL1        -0.5919
       2    H1      22.523858   19.738954   20.285124 H          1 MOL1         0.3682
       3    H2      21.072389   19.772003   19.503784 H          1 MOL1         0.3682
       4    H3      21.908971   21.168919   19.748355 H          1 MOL1         0.3682
       5    C1      20.947213   20.468936   21.505573 C.3        1 MOL1         0.0252
       6    H4      20.051671   21.069475   21.324291 H          1 MOL1         0.0971
       7    H5      21.612255   21.034551   22.163822 H          1 MOL1         0.0971
       8    C2      20.553454   19.143598   22.182111 C.3        1 MOL1        -0.1369
       9    H6      19.901101   18.576841   21.505879 H          1 MOL1         0.0997
      10    H7      21.453702   18.537046   22.347821 H          1 MOL1         0.0997
      11    C3      19.836054   19.390020   23.530350 C.3        1 MOL1        -0.1329
      12    H8      18.910807   19.957600   23.359011 H          1 MOL1         0.0997
      13    H9      20.473065   20.022705   24.164124 H          1 MOL1         0.0997
      14    C4      19.509568   18.089071   24.303401 C.3        1 MOL1        -0.1305
      15    H10     20.435411   17.529739   24.497925 H          1 MOL1         0.0997
      16    H11     19.100513   18.356992   25.287693 H          1 MOL1         0.0997
      17    C5      18.495645   17.178366   23.573943 C.3        1 MOL1        -0.2320
      18    H12     18.907728   16.785466   22.636265 H          1 MOL1         0.1008
      19    H13     18.230087   16.318592   24.202608 H          1 MOL1         0.1008
      20    H14     17.570840   17.722582   23.342471 H          1 MOL1         0.1008
@<TRIPOS>BOND
    1     1     2    1
    2     1     3    1
    3     1     4    1
    4     1     5    1
    5     5     6    1
    6     5     7    1
    7     5     8    1
    8     8     9    1
    9     8    10    1
   10     8    11    1
   11    11    12    1
   12    11    13    1
   13    11    14    1
   14    14    15    1
   15    14    16    1
   16    14    17    1
   17    17    18    1
   18    17    19    1
   19    17    20    1
@<TRIPOS>SUBSTRUCTURE
       1 MOL1            1 RESIDUE      1      MOL     
@<SCITEGIC>MOL_PROPERTY
VConf Rank
SciTegic.value.IntegerValue
451

@<SCITEGIC>MOL_PROPERTY
Conf_Id
SciTegic.value.IntegerValue
41

@<SCITEGIC>MOL_PROPERTY
Delta U+W
SciTegic.value.DoubleValue
0.515

@<SCITEGIC>MOL_PROPERTY
U+W
SciTegic.value.DoubleValue
-11.263

@<SCITEGIC>MOL_PROPERTY
Grad RMS
SciTegic.value.DoubleValue
0.000000

@<SCITEGIC>MOL_PROPERTY
U
SciTegic.value.DoubleValue
46.486

@<SCITEGIC>MOL_PROPERTY
W
SciTegic.value.DoubleValue
-57.749

@<SCITEGIC>MOL_PROPERTY
W(PB)
SciTegic.value.DoubleValue
-59.685

@<SCITEGIC>MOL_PROPERTY
W(SA)
SciTegic.value.DoubleValue
1.936

@<SCITEGIC>MOL_PROPERTY
Valence
SciTegic.value.DoubleValue
1.806

@<SCITEGIC>MOL_PROPERTY
Coulomb
SciTegic.value.DoubleValue
44.248

@<SCITEGIC>MOL_PROPERTY
VdW
SciTegic.value.DoubleValue
0.433

@<SCITEGIC>MOL_PROPERTY
VdW6
SciTegic.value.DoubleValue
-4.089

@<SCITEGIC>MOL_PROPERTY
VdW12
SciTegic.value.DoubleValue
4.522

@<SCITEGIC>MOL_PROPERTY
Bond
SciTegic.value.DoubleValue
0.131

@<SCITEGIC>MOL_PROPERTY
Angle
SciTegic.value.DoubleValue
0.628

@<SCITEGIC>MOL_PROPERTY
Pdih
SciTegic.value.DoubleValue
1.047

@<SCITEGIC>MOL_PROPERTY
Idih
SciTegic.value.DoubleValue
0.000

@<SCITEGIC>MOL_PROPERTY
Tether
SciTegic.value.DoubleValue
0.000

@<TRIPOS>MOLECULE
guest-s11_confgen4.mol2 : confsearch ligand conformer 452
          20          19           1
SMALL
USER_CHARGES
 
@<TRIPOS>ATOM
       1    N1      18.833390   21.544636   22.173328 N.4        1 MOL1        -0.5919
       2    H1      18.378203   22.376746   22.563070 H          1 MOL1         0.3682
       3    H2      19.808836   21.797010   21.989608 H          1 MOL1         0.3682
       4    H3      18.392117   21.361000   21.266823 H          1 MOL1         0.3682
       5    C1      18.723626   20.354158   23.106536 C.3        1 MOL1         0.0252
       6    H4      17.660628   20.174259   23.288938 H          1 MOL1         0.0971
       7    H5      19.190629   20.623517   24.057744 H          1 MOL1         0.0971
       8    C2      19.370787   19.067701   22.556917 C.3        1 MOL1        -0.1369
       9    H6      19.134086   18.248382   23.247059 H          1 MOL1         0.0997
      10    H7      18.911883   18.809491   21.593370 H          1 MOL1         0.0997
      11    C3      20.907218   19.191313   22.398114 C.3        1 MOL1        -0.1329
      12    H8      21.361632   19.427235   23.370388 H          1 MOL1         0.0997
      13    H9      21.139458   20.035564   21.735609 H          1 MOL1         0.0997
      14    C4      21.570628   17.920993   21.812320 C.3        1 MOL1        -0.1305
      15    H10     21.128911   17.688543   20.833179 H          1 MOL1         0.0997
      16    H11     22.633119   18.132364   21.626910 H          1 MOL1         0.0997
      17    C5      21.463983   16.686988   22.737318 C.3        1 MOL1        -0.2320
      18    H12     20.424102   16.357874   22.853941 H          1 MOL1         0.1008
      19    H13     22.030584   15.844469   22.320097 H          1 MOL1         0.1008
      20    H14     21.870710   16.903506   23.733660 H          1 MOL1         0.1008
@<TRIPOS>BOND
    1     1     2    1
    2     1     3    1
    3     1     4    1
    4     1     5    1
    5     5     6    1
    6     5     7    1
    7     5     8    1
    8     8     9    1
    9     8    10    1
   10     8    11    1
   11    11    12    1
   12    11    13    1
   13    11    14    1
   14    14    15    1
   15    14    16    1
   16    14    17    1
   17    17    18    1
   18    17    19    1
   19    17    20    1
@<TRIPOS>SUBSTRUCTURE
       1 MOL1            1 RESIDUE      1      MOL     
@<SCITEGIC>MOL_PROPERTY
VConf Rank
SciTegic.value.IntegerValue
452

@<SCITEGIC>MOL_PROPERTY
Conf_Id
SciTegic.value.IntegerValue
33

@<SCITEGIC>MOL_PROPERTY
Delta U+W
SciTegic.value.DoubleValue
0.703

@<SCITEGIC>MOL_PROPERTY
U+W
SciTegic.value.DoubleValue
-11.075

@<SCITEGIC>MOL_PROPERTY
Grad RMS
SciTegic.value.DoubleValue
0.000000

@<SCITEGIC>MOL_PROPERTY
U
SciTegic.value.DoubleValue
47.080

@<SCITEGIC>MOL_PROPERTY
W
SciTegic.value.DoubleValue
-58.154

@<SCITEGIC>MOL_PROPERTY
W(PB)
SciTegic.value.DoubleValue
-60.053

@<SCITEGIC>MOL_PROPERTY
W(SA)
SciTegic.value.DoubleValue
1.899

@<SCITEGIC>MOL_PROPERTY
Valence
SciTegic.value.DoubleValue
1.943

@<SCITEGIC>MOL_PROPERTY
Coulomb
SciTegic.value.DoubleValue
44.572

@<SCITEGIC>MOL_PROPERTY
VdW
SciTegic.value.DoubleValue
0.565

@<SCITEGIC>MOL_PROPERTY
VdW6
SciTegic.value.DoubleValue
-4.575

@<SCITEGIC>MOL_PROPERTY
VdW12
SciTegic.value.DoubleValue
5.139

@<SCITEGIC>MOL_PROPERTY
Bond
SciTegic.value.DoubleValue
0.158

@<SCITEGIC>MOL_PROPERTY
Angle
SciTegic.value.DoubleValue
0.700

@<SCITEGIC>MOL_PROPERTY
Pdih
SciTegic.value.DoubleValue
1.085

@<SCITEGIC>MOL_PROPERTY
Idih
SciTegic.value.DoubleValue
0.000

@<SCITEGIC>MOL_PROPERTY
Tether
SciTegic.value.DoubleValue
0.000

@<TRIPOS>MOLECULE
guest-s11_confgen4.mol2 : confsearch ligand conformer 453
          20          19           1
SMALL
USER_CHARGES
 
@<TRIPOS>ATOM
       1    N1      21.377402   17.237994   24.068989 N.4        1 MOL1        -0.5919
       2    H1      21.823240   16.953199   24.947408 H          1 MOL1         0.3682
       3    H2      20.931368   16.402740   23.677074 H          1 MOL1         0.3682
       4    H3      22.128550   17.509180   23.427760 H          1 MOL1         0.3682
       5    C1      20.382338   18.362582   24.281854 C.3        1 MOL1         0.0252
       6    H4      20.915690   19.209973   24.721066 H          1 MOL1         0.0971
       7    H5      19.641142   18.015102   25.006759 H          1 MOL1         0.0971
       8    C2      19.663621   18.812844   22.994775 C.3        1 MOL1        -0.1369
       9    H6      19.143382   17.955949   22.546697 H          1 MOL1         0.0997
      10    H7      18.889892   19.538235   23.275416 H          1 MOL1         0.0997
      11    C3      20.627958   19.448915   21.962019 C.3        1 MOL1        -0.1329
      12    H8      21.420919   18.731664   21.712274 H          1 MOL1         0.0997
      13    H9      21.127912   20.318916   22.409916 H          1 MOL1         0.0997
      14    C4      19.929886   19.874338   20.647224 C.3        1 MOL1        -0.1305
      15    H10     20.696536   20.206442   19.933154 H          1 MOL1         0.0997
      16    H11     19.439612   19.004451   20.188100 H          1 MOL1         0.0997
      17    C5      18.900644   21.012296   20.835577 C.3        1 MOL1        -0.2320
      18    H12     19.358826   21.883155   21.322074 H          1 MOL1         0.1008
      19    H13     18.508040   21.339387   19.864072 H          1 MOL1         0.1008
      20    H14     18.046494   20.688375   21.442845 H          1 MOL1         0.1008
@<TRIPOS>BOND
    1     1     2    1
    2     1     3    1
    3     1     4    1
    4     1     5    1
    5     5     6    1
    6     5     7    1
    7     5     8    1
    8     8     9    1
    9     8    10    1
   10     8    11    1
   11    11    12    1
   12    11    13    1
   13    11    14    1
   14    14    15    1
   15    14    16    1
   16    14    17    1
   17    17    18    1
   18    17    19    1
   19    17    20    1
@<TRIPOS>SUBSTRUCTURE
       1 MOL1            1 RESIDUE      1      MOL     
@<SCITEGIC>MOL_PROPERTY
VConf Rank
SciTegic.value.IntegerValue
453

@<SCITEGIC>MOL_PROPERTY
Conf_Id
SciTegic.value.IntegerValue
24

@<SCITEGIC>MOL_PROPERTY
Delta U+W
SciTegic.value.DoubleValue
0.847

@<SCITEGIC>MOL_PROPERTY
U+W
SciTegic.value.DoubleValue
-10.931

@<SCITEGIC>MOL_PROPERTY
Grad RMS
SciTegic.value.DoubleValue
0.000000

@<SCITEGIC>MOL_PROPERTY
U
SciTegic.value.DoubleValue
47.080

@<SCITEGIC>MOL_PROPERTY
W
SciTegic.value.DoubleValue
-58.011

@<SCITEGIC>MOL_PROPERTY
W(PB)
SciTegic.value.DoubleValue
-59.914

@<SCITEGIC>MOL_PROPERTY
W(SA)
SciTegic.value.DoubleValue
1.903

@<SCITEGIC>MOL_PROPERTY
Valence
SciTegic.value.DoubleValue
1.943

@<SCITEGIC>MOL_PROPERTY
Coulomb
SciTegic.value.DoubleValue
44.572

@<SCITEGIC>MOL_PROPERTY
VdW
SciTegic.value.DoubleValue
0.565

@<SCITEGIC>MOL_PROPERTY
VdW6
SciTegic.value.DoubleValue
-4.575

@<SCITEGIC>MOL_PROPERTY
VdW12
SciTegic.value.DoubleValue
5.140

@<SCITEGIC>MOL_PROPERTY
Bond
SciTegic.value.DoubleValue
0.158

@<SCITEGIC>MOL_PROPERTY
Angle
SciTegic.value.DoubleValue
0.700

@<SCITEGIC>MOL_PROPERTY
Pdih
SciTegic.value.DoubleValue
1.085

@<SCITEGIC>MOL_PROPERTY
Idih
SciTegic.value.DoubleValue
0.000

@<SCITEGIC>MOL_PROPERTY
Tether
SciTegic.value.DoubleValue
0.000

@<TRIPOS>MOLECULE
guest-s11_confgen4.mol2 : confsearch ligand conformer 454
          20          19           1
SMALL
USER_CHARGES
 
@<TRIPOS>ATOM
       1    N1      17.550479   18.391369   22.043567 N.4        1 MOL1        -0.5919
       2    H1      17.067712   18.331285   21.140896 H          1 MOL1         0.3682
       3    H2      17.777506   17.432115   22.323766 H          1 MOL1         0.3682
       4    H3      16.870068   18.750000   22.720866 H          1 MOL1         0.3682
       5    C1      18.785509   19.265894   21.964601 C.3        1 MOL1         0.0252
       6    H4      18.474811   20.260600   21.633836 H          1 MOL1         0.0971
       7    H5      19.448728   18.842592   21.205694 H          1 MOL1         0.0971
       8    C2      19.535356   19.376804   23.305516 C.3        1 MOL1        -0.1369
       9    H6      18.848541   19.763688   24.069954 H          1 MOL1         0.0997
      10    H7      19.839738   18.377853   23.643009 H          1 MOL1         0.0997
      11    C3      20.770485   20.308571   23.226365 C.3        1 MOL1        -0.1329
      12    H8      21.248494   20.351168   24.214776 H          1 MOL1         0.0997
      13    H9      20.432150   21.331480   23.010311 H          1 MOL1         0.0997
      14    C4      21.827898   19.899340   22.169185 C.3        1 MOL1        -0.1305
      15    H10     21.396648   19.953258   21.160277 H          1 MOL1         0.0997
      16    H11     22.644112   20.635105   22.187261 H          1 MOL1         0.0997
      17    C5      22.421228   18.491951   22.406303 C.3        1 MOL1        -0.2320
      18    H12     23.227554   18.288937   21.689694 H          1 MOL1         0.1008
      19    H13     22.840943   18.405459   23.416913 H          1 MOL1         0.1008
      20    H14     21.663322   17.708821   22.280124 H          1 MOL1         0.1008
@<TRIPOS>BOND
    1     1     2    1
    2     1     3    1
    3     1     4    1
    4     1     5    1
    5     5     6    1
    6     5     7    1
    7     5     8    1
    8     8     9    1
    9     8    10    1
   10     8    11    1
   11    11    12    1
   12    11    13    1
   13    11    14    1
   14    14    15    1
   15    14    16    1
   16    14    17    1
   17    17    18    1
   18    17    19    1
   19    17    20    1
@<TRIPOS>SUBSTRUCTURE
       1 MOL1            1 RESIDUE      1      MOL     
@<SCITEGIC>MOL_PROPERTY
VConf Rank
SciTegic.value.IntegerValue
454

@<SCITEGIC>MOL_PROPERTY
Conf_Id
SciTegic.value.IntegerValue
64

@<SCITEGIC>MOL_PROPERTY
Delta U+W
SciTegic.value.DoubleValue
0.707

@<SCITEGIC>MOL_PROPERTY
U+W
SciTegic.value.DoubleValue
-11.070

@<SCITEGIC>MOL_PROPERTY
Grad RMS
SciTegic.value.DoubleValue
0.000000

@<SCITEGIC>MOL_PROPERTY
U
SciTegic.value.DoubleValue
47.077

@<SCITEGIC>MOL_PROPERTY
W
SciTegic.value.DoubleValue
-58.148

@<SCITEGIC>MOL_PROPERTY
W(PB)
SciTegic.value.DoubleValue
-60.054

@<SCITEGIC>MOL_PROPERTY
W(SA)
SciTegic.value.DoubleValue
1.906

@<SCITEGIC>MOL_PROPERTY
Valence
SciTegic.value.DoubleValue
2.039

@<SCITEGIC>MOL_PROPERTY
Coulomb
SciTegic.value.DoubleValue
44.655

@<SCITEGIC>MOL_PROPERTY
VdW
SciTegic.value.DoubleValue
0.383

@<SCITEGIC>MOL_PROPERTY
VdW6
SciTegic.value.DoubleValue
-4.912

@<SCITEGIC>MOL_PROPERTY
VdW12
SciTegic.value.DoubleValue
5.295

@<SCITEGIC>MOL_PROPERTY
Bond
SciTegic.value.DoubleValue
0.159

@<SCITEGIC>MOL_PROPERTY
Angle
SciTegic.value.DoubleValue
0.856

@<SCITEGIC>MOL_PROPERTY
Pdih
SciTegic.value.DoubleValue
1.024

@<SCITEGIC>MOL_PROPERTY
Idih
SciTegic.value.DoubleValue
0.000

@<SCITEGIC>MOL_PROPERTY
Tether
SciTegic.value.DoubleValue
0.000

@<TRIPOS>MOLECULE
guest-s11_confgen4.mol2 : confsearch ligand conformer 455
          20          19           1
SMALL
USER_CHARGES
 
@<TRIPOS>ATOM
       1    N1      18.336740   17.649091   23.927853 N.4        1 MOL1        -0.5919
       2    H1      17.481360   17.427594   23.408650 H          1 MOL1         0.3682
       3    H2      18.923898   16.809294   23.913363 H          1 MOL1         0.3682
       4    H3      18.060783   17.802374   24.903476 H          1 MOL1         0.3682
       5    C1      19.054310   18.852149   23.349864 C.3        1 MOL1         0.0252
       6    H4      19.934478   19.047161   23.968135 H          1 MOL1         0.0971
       7    H5      18.384388   19.713039   23.423709 H          1 MOL1         0.0971
       8    C2      19.483473   18.654182   21.883832 C.3        1 MOL1        -0.1369
       9    H6      20.148709   17.784675   21.807193 H          1 MOL1         0.0997
      10    H7      18.597757   18.418022   21.279270 H          1 MOL1         0.0997
      11    C3      20.175859   19.905275   21.287708 C.3        1 MOL1        -0.1329
      12    H8      19.453079   20.732425   21.257628 H          1 MOL1         0.0997
      13    H9      20.443421   19.700022   20.241981 H          1 MOL1         0.0997
      14    C4      21.440285   20.375469   22.051493 C.3        1 MOL1        -0.1305
      15    H10     21.834970   21.273566   21.555986 H          1 MOL1         0.0997
      16    H11     21.174220   20.686742   23.070853 H          1 MOL1         0.0997
      17    C5      22.556263   19.307607   22.108723 C.3        1 MOL1        -0.2320
      18    H12     22.826337   18.964276   21.101668 H          1 MOL1         0.1008
      19    H13     23.459724   19.720361   22.575946 H          1 MOL1         0.1008
      20    H14     22.249162   18.435309   22.698993 H          1 MOL1         0.1008
@<TRIPOS>BOND
    1     1     2    1
    2     1     3    1
    3     1     4    1
    4     1     5    1
    5     5     6    1
    6     5     7    1
    7     5     8    1
    8     8     9    1
    9     8    10    1
   10     8    11    1
   11    11    12    1
   12    11    13    1
   13    11    14    1
   14    14    15    1
   15    14    16    1
   16    14    17    1
   17    17    18    1
   18    17    19    1
   19    17    20    1
@<TRIPOS>SUBSTRUCTURE
       1 MOL1            1 RESIDUE      1      MOL     
@<SCITEGIC>MOL_PROPERTY
VConf Rank
SciTegic.value.IntegerValue
455

@<SCITEGIC>MOL_PROPERTY
Conf_Id
SciTegic.value.IntegerValue
22

@<SCITEGIC>MOL_PROPERTY
Delta U+W
SciTegic.value.DoubleValue
0.731

@<SCITEGIC>MOL_PROPERTY
U+W
SciTegic.value.DoubleValue
-11.047

@<SCITEGIC>MOL_PROPERTY
Grad RMS
SciTegic.value.DoubleValue
0.000000

@<SCITEGIC>MOL_PROPERTY
U
SciTegic.value.DoubleValue
47.078

@<SCITEGIC>MOL_PROPERTY
W
SciTegic.value.DoubleValue
-58.125

@<SCITEGIC>MOL_PROPERTY
W(PB)
SciTegic.value.DoubleValue
-60.031

@<SCITEGIC>MOL_PROPERTY
W(SA)
SciTegic.value.DoubleValue
1.906

@<SCITEGIC>MOL_PROPERTY
Valence
SciTegic.value.DoubleValue
2.039

@<SCITEGIC>MOL_PROPERTY
Coulomb
SciTegic.value.DoubleValue
44.655

@<SCITEGIC>MOL_PROPERTY
VdW
SciTegic.value.DoubleValue
0.383

@<SCITEGIC>MOL_PROPERTY
VdW6
SciTegic.value.DoubleValue
-4.913

@<SCITEGIC>MOL_PROPERTY
VdW12
SciTegic.value.DoubleValue
5.296

@<SCITEGIC>MOL_PROPERTY
Bond
SciTegic.value.DoubleValue
0.159

@<SCITEGIC>MOL_PROPERTY
Angle
SciTegic.value.DoubleValue
0.856

@<SCITEGIC>MOL_PROPERTY
Pdih
SciTegic.value.DoubleValue
1.024

@<SCITEGIC>MOL_PROPERTY
Idih
SciTegic.value.DoubleValue
0.000

@<SCITEGIC>MOL_PROPERTY
Tether
SciTegic.value.DoubleValue
0.000

@<TRIPOS>MOLECULE
guest-s11_confgen4.mol2 : confsearch ligand conformer 456
          20          19           1
SMALL
USER_CHARGES
 
@<TRIPOS>ATOM
       1    N1      19.932054   19.283711   19.760053 N.4        1 MOL1        -0.5919
       2    H1      19.868303   18.288447   19.524002 H          1 MOL1         0.3682
       3    H2      19.060689   19.723614   19.447771 H          1 MOL1         0.3682
       4    H3      20.685643   19.677616   19.186960 H          1 MOL1         0.3682
       5    C1      20.177324   19.500315   21.239761 C.3        1 MOL1         0.0252
       6    H4      20.261517   20.576255   21.414861 H          1 MOL1         0.0971
       7    H5      21.131807   19.031535   21.489709 H          1 MOL1         0.0971
       8    C2      19.065458   18.914957   22.128458 C.3        1 MOL1        -0.1369
       9    H6      18.097740   19.305081   21.786040 H          1 MOL1         0.0997
      10    H7      19.025534   17.825844   21.994208 H          1 MOL1         0.0997
      11    C3      19.223614   19.248068   23.633761 C.3        1 MOL1        -0.1329
      12    H8      18.334776   18.862134   24.152002 H          1 MOL1         0.0997
      13    H9      19.205807   20.336271   23.784915 H          1 MOL1         0.0997
      14    C4      20.476712   18.634021   24.310428 C.3        1 MOL1        -0.1305
      15    H10     20.252563   18.479562   25.375324 H          1 MOL1         0.0997
      16    H11     20.682515   17.636380   23.897997 H          1 MOL1         0.0997
      17    C5      21.738740   19.523690   24.217643 C.3        1 MOL1        -0.2320
      18    H12     22.082793   19.651127   23.186012 H          1 MOL1         0.1008
      19    H13     21.550414   20.519460   24.639519 H          1 MOL1         0.1008
      20    H14     22.564605   19.074525   24.784372 H          1 MOL1         0.1008
@<TRIPOS>BOND
    1     1     2    1
    2     1     3    1
    3     1     4    1
    4     1     5    1
    5     5     6    1
    6     5     7    1
    7     5     8    1
    8     8     9    1
    9     8    10    1
   10     8    11    1
   11    11    12    1
   12    11    13    1
   13    11    14    1
   14    14    15    1
   15    14    16    1
   16    14    17    1
   17    17    18    1
   18    17    19    1
   19    17    20    1
@<TRIPOS>SUBSTRUCTURE
       1 MOL1            1 RESIDUE      1      MOL     
@<SCITEGIC>MOL_PROPERTY
VConf Rank
SciTegic.value.IntegerValue
456

@<SCITEGIC>MOL_PROPERTY
Conf_Id
SciTegic.value.IntegerValue
61

@<SCITEGIC>MOL_PROPERTY
Delta U+W
SciTegic.value.DoubleValue
2.669

@<SCITEGIC>MOL_PROPERTY
U+W
SciTegic.value.DoubleValue
-9.108

@<SCITEGIC>MOL_PROPERTY
Grad RMS
SciTegic.value.DoubleValue
0.000000

@<SCITEGIC>MOL_PROPERTY
U
SciTegic.value.DoubleValue
48.916

@<SCITEGIC>MOL_PROPERTY
W
SciTegic.value.DoubleValue
-58.025

@<SCITEGIC>MOL_PROPERTY
W(PB)
SciTegic.value.DoubleValue
-59.935

@<SCITEGIC>MOL_PROPERTY
W(SA)
SciTegic.value.DoubleValue
1.911

@<SCITEGIC>MOL_PROPERTY
Valence
SciTegic.value.DoubleValue
3.785

@<SCITEGIC>MOL_PROPERTY
Coulomb
SciTegic.value.DoubleValue
44.716

@<SCITEGIC>MOL_PROPERTY
VdW
SciTegic.value.DoubleValue
0.415

@<SCITEGIC>MOL_PROPERTY
VdW6
SciTegic.value.DoubleValue
-4.836

@<SCITEGIC>MOL_PROPERTY
VdW12
SciTegic.value.DoubleValue
5.251

@<SCITEGIC>MOL_PROPERTY
Bond
SciTegic.value.DoubleValue
0.175

@<SCITEGIC>MOL_PROPERTY
Angle
SciTegic.value.DoubleValue
1.195

@<SCITEGIC>MOL_PROPERTY
Pdih
SciTegic.value.DoubleValue
2.415

@<SCITEGIC>MOL_PROPERTY
Idih
SciTegic.value.DoubleValue
0.000

@<SCITEGIC>MOL_PROPERTY
Tether
SciTegic.value.DoubleValue
0.000

@<TRIPOS>MOLECULE
guest-s11_confgen4.mol2 : confsearch ligand conformer 457
          20          19           1
SMALL
USER_CHARGES
 
@<TRIPOS>ATOM
       1    N1      17.843773   18.977125   22.329158 N.4        1 MOL1        -0.5919
       2    H1      16.991748   19.536561   22.216344 H          1 MOL1         0.3682
       3    H2      17.544296   18.021095   22.545081 H          1 MOL1         0.3682
       4    H3      18.330999   19.334779   23.154820 H          1 MOL1         0.3682
       5    C1      18.716571   19.026817   21.089672 C.3        1 MOL1         0.0252
       6    H4      18.957137   20.071344   20.874197 H          1 MOL1         0.0971
       7    H5      18.115424   18.640969   20.261842 H          1 MOL1         0.0971
       8    C2      20.015767   18.200408   21.192692 C.3        1 MOL1        -0.1369
       9    H6      19.809440   17.232151   21.667795 H          1 MOL1         0.0997
      10    H7      20.346167   17.969662   20.171192 H          1 MOL1         0.0997
      11    C3      21.182151   18.920384   21.917227 C.3        1 MOL1        -0.1329
      12    H8      21.414112   19.858796   21.394690 H          1 MOL1         0.0997
      13    H9      22.079209   18.291965   21.828583 H          1 MOL1         0.0997
      14    C4      20.924087   19.213643   23.413794 C.3        1 MOL1        -0.1305
      15    H10     20.126123   19.959353   23.518768 H          1 MOL1         0.0997
      16    H11     20.586787   18.298948   23.921242 H          1 MOL1         0.0997
      17    C5      22.191257   19.748056   24.115008 C.3        1 MOL1        -0.2320
      18    H12     21.988929   19.960123   25.172903 H          1 MOL1         0.1008
      19    H13     23.007539   19.015364   24.069531 H          1 MOL1         0.1008
      20    H14     22.539782   20.677487   23.646011 H          1 MOL1         0.1008
@<TRIPOS>BOND
    1     1     2    1
    2     1     3    1
    3     1     4    1
    4     1     5    1
    5     5     6    1
    6     5     7    1
    7     5     8    1
    8     8     9    1
    9     8    10    1
   10     8    11    1
   11    11    12    1
   12    11    13    1
   13    11    14    1
   14    14    15    1
   15    14    16    1
   16    14    17    1
   17    17    18    1
   18    17    19    1
   19    17    20    1
@<TRIPOS>SUBSTRUCTURE
       1 MOL1            1 RESIDUE      1      MOL     
@<SCITEGIC>MOL_PROPERTY
VConf Rank
SciTegic.value.IntegerValue
457

@<SCITEGIC>MOL_PROPERTY
Conf_Id
SciTegic.value.IntegerValue
69

@<SCITEGIC>MOL_PROPERTY
Delta U+W
SciTegic.value.DoubleValue
2.811

@<SCITEGIC>MOL_PROPERTY
U+W
SciTegic.value.DoubleValue
-8.967

@<SCITEGIC>MOL_PROPERTY
Grad RMS
SciTegic.value.DoubleValue
0.000000

@<SCITEGIC>MOL_PROPERTY
U
SciTegic.value.DoubleValue
49.216

@<SCITEGIC>MOL_PROPERTY
W
SciTegic.value.DoubleValue
-58.183

@<SCITEGIC>MOL_PROPERTY
W(PB)
SciTegic.value.DoubleValue
-60.064

@<SCITEGIC>MOL_PROPERTY
W(SA)
SciTegic.value.DoubleValue
1.881

@<SCITEGIC>MOL_PROPERTY
Valence
SciTegic.value.DoubleValue
2.929

@<SCITEGIC>MOL_PROPERTY
Coulomb
SciTegic.value.DoubleValue
46.006

@<SCITEGIC>MOL_PROPERTY
VdW
SciTegic.value.DoubleValue
0.281

@<SCITEGIC>MOL_PROPERTY
VdW6
SciTegic.value.DoubleValue
-4.909

@<SCITEGIC>MOL_PROPERTY
VdW12
SciTegic.value.DoubleValue
5.190

@<SCITEGIC>MOL_PROPERTY
Bond
SciTegic.value.DoubleValue
0.156

@<SCITEGIC>MOL_PROPERTY
Angle
SciTegic.value.DoubleValue
0.974

@<SCITEGIC>MOL_PROPERTY
Pdih
SciTegic.value.DoubleValue
1.799

@<SCITEGIC>MOL_PROPERTY
Idih
SciTegic.value.DoubleValue
0.000

@<SCITEGIC>MOL_PROPERTY
Tether
SciTegic.value.DoubleValue
0.000

@<TRIPOS>MOLECULE
guest-s11_confgen4.mol2 : confsearch ligand conformer 458
          20          19           1
SMALL
USER_CHARGES
 
@<TRIPOS>ATOM
       1    N1      22.181984   18.595420   21.704374 N.4        1 MOL1        -0.5919
       2    H1      21.658221   17.995909   22.347248 H          1 MOL1         0.3682
       3    H2      22.098173   18.182978   20.769938 H          1 MOL1         0.3682
       4    H3      23.170422   18.530508   21.969738 H          1 MOL1         0.3682
       5    C1      21.685542   20.028344   21.733407 C.3        1 MOL1         0.0252
       6    H4      22.305236   20.593779   21.032108 H          1 MOL1         0.0971
       7    H5      21.851850   20.434816   22.734637 H          1 MOL1         0.0971
       8    C2      20.202982   20.196265   21.339328 C.3        1 MOL1        -0.1369
       9    H6      20.063047   21.231485   21.000791 H          1 MOL1         0.0997
      10    H7      19.969465   19.562682   20.473385 H          1 MOL1         0.0997
      11    C3      19.196457   19.932975   22.488831 C.3        1 MOL1        -0.1329
      12    H8      18.191313   20.193251   22.129079 H          1 MOL1         0.0997
      13    H9      19.407815   20.615181   23.323929 H          1 MOL1         0.0997
      14    C4      19.179716   18.475175   23.005406 C.3        1 MOL1        -0.1305
      15    H10     19.076095   17.780236   22.160263 H          1 MOL1         0.0997
      16    H11     20.127990   18.242617   23.505952 H          1 MOL1         0.0997
      17    C5      18.026347   18.239219   24.003946 C.3        1 MOL1        -0.2320
      18    H12     17.051624   18.422179   23.533136 H          1 MOL1         0.1008
      19    H13     18.034298   17.203649   24.368066 H          1 MOL1         0.1008
      20    H14     18.115496   18.902715   24.874058 H          1 MOL1         0.1008
@<TRIPOS>BOND
    1     1     2    1
    2     1     3    1
    3     1     4    1
    4     1     5    1
    5     5     6    1
    6     5     7    1
    7     5     8    1
    8     8     9    1
    9     8    10    1
   10     8    11    1
   11    11    12    1
   12    11    13    1
   13    11    14    1
   14    14    15    1
   15    14    16    1
   16    14    17    1
   17    17    18    1
   18    17    19    1
   19    17    20    1
@<TRIPOS>SUBSTRUCTURE
       1 MOL1            1 RESIDUE      1      MOL     
@<SCITEGIC>MOL_PROPERTY
VConf Rank
SciTegic.value.IntegerValue
458

@<SCITEGIC>MOL_PROPERTY
Conf_Id
SciTegic.value.IntegerValue
26

@<SCITEGIC>MOL_PROPERTY
Delta U+W
SciTegic.value.DoubleValue
2.809

@<SCITEGIC>MOL_PROPERTY
U+W
SciTegic.value.DoubleValue
-8.969

@<SCITEGIC>MOL_PROPERTY
Grad RMS
SciTegic.value.DoubleValue
0.000000

@<SCITEGIC>MOL_PROPERTY
U
SciTegic.value.DoubleValue
49.216

@<SCITEGIC>MOL_PROPERTY
W
SciTegic.value.DoubleValue
-58.185

@<SCITEGIC>MOL_PROPERTY
W(PB)
SciTegic.value.DoubleValue
-60.088

@<SCITEGIC>MOL_PROPERTY
W(SA)
SciTegic.value.DoubleValue
1.903

@<SCITEGIC>MOL_PROPERTY
Valence
SciTegic.value.DoubleValue
2.929

@<SCITEGIC>MOL_PROPERTY
Coulomb
SciTegic.value.DoubleValue
46.006

@<SCITEGIC>MOL_PROPERTY
VdW
SciTegic.value.DoubleValue
0.281

@<SCITEGIC>MOL_PROPERTY
VdW6
SciTegic.value.DoubleValue
-4.909

@<SCITEGIC>MOL_PROPERTY
VdW12
SciTegic.value.DoubleValue
5.190

@<SCITEGIC>MOL_PROPERTY
Bond
SciTegic.value.DoubleValue
0.156

@<SCITEGIC>MOL_PROPERTY
Angle
SciTegic.value.DoubleValue
0.974

@<SCITEGIC>MOL_PROPERTY
Pdih
SciTegic.value.DoubleValue
1.799

@<SCITEGIC>MOL_PROPERTY
Idih
SciTegic.value.DoubleValue
0.000

@<SCITEGIC>MOL_PROPERTY
Tether
SciTegic.value.DoubleValue
0.000

@<TRIPOS>MOLECULE
guest-s11_confgen4.mol2 : confsearch ligand conformer 459
          20          19           1
SMALL
USER_CHARGES
 
@<TRIPOS>ATOM
       1    N1      22.549159   19.227260   22.475980 N.4        1 MOL1        -0.5919
       2    H1      22.269799   18.241933   22.470737 H          1 MOL1         0.3682
       3    H2      23.018417   19.413677   21.584305 H          1 MOL1         0.3682
       4    H3      23.254026   19.336055   23.212617 H          1 MOL1         0.3682
       5    C1      21.362189   20.145824   22.691246 C.3        1 MOL1         0.0252
       6    H4      21.736242   21.172932   22.716616 H          1 MOL1         0.0971
       7    H5      20.929367   19.918522   23.668963 H          1 MOL1         0.0971
       8    C2      20.277898   20.022880   21.601525 C.3        1 MOL1        -0.1369
       9    H6      19.498426   20.771668   21.791975 H          1 MOL1         0.0997
      10    H7      20.714502   20.286042   20.629023 H          1 MOL1         0.0997
      11    C3      19.634869   18.614067   21.507955 C.3        1 MOL1        -0.1329
      12    H8      20.386471   17.894043   21.157432 H          1 MOL1         0.0997
      13    H9      18.856524   18.631564   20.732667 H          1 MOL1         0.0997
      14    C4      19.017737   18.091775   22.830600 C.3        1 MOL1        -0.1305
      15    H10     18.613654   17.084861   22.655406 H          1 MOL1         0.0997
      16    H11     19.798352   17.974524   23.594399 H          1 MOL1         0.0997
      17    C5      17.887672   18.993137   23.377721 C.3        1 MOL1        -0.2320
      18    H12     17.101090   19.140061   22.626278 H          1 MOL1         0.1008
      19    H13     17.425446   18.536111   24.262232 H          1 MOL1         0.1008
      20    H14     18.267032   19.978459   23.675763 H          1 MOL1         0.1008
@<TRIPOS>BOND
    1     1     2    1
    2     1     3    1
    3     1     4    1
    4     1     5    1
    5     5     6    1
    6     5     7    1
    7     5     8    1
    8     8     9    1
    9     8    10    1
   10     8    11    1
   11    11    12    1
   12    11    13    1
   13    11    14    1
   14    14    15    1
   15    14    16    1
   16    14    17    1
   17    17    18    1
   18    17    19    1
   19    17    20    1
@<TRIPOS>SUBSTRUCTURE
       1 MOL1            1 RESIDUE      1      MOL     
@<SCITEGIC>MOL_PROPERTY
VConf Rank
SciTegic.value.IntegerValue
459

@<SCITEGIC>MOL_PROPERTY
Conf_Id
SciTegic.value.IntegerValue
2

@<SCITEGIC>MOL_PROPERTY
Delta U+W
SciTegic.value.DoubleValue
0.994

@<SCITEGIC>MOL_PROPERTY
U+W
SciTegic.value.DoubleValue
-10.784

@<SCITEGIC>MOL_PROPERTY
Grad RMS
SciTegic.value.DoubleValue
0.000000

@<SCITEGIC>MOL_PROPERTY
U
SciTegic.value.DoubleValue
47.562

@<SCITEGIC>MOL_PROPERTY
W
SciTegic.value.DoubleValue
-58.346

@<SCITEGIC>MOL_PROPERTY
W(PB)
SciTegic.value.DoubleValue
-60.221

@<SCITEGIC>MOL_PROPERTY
W(SA)
SciTegic.value.DoubleValue
1.875

@<SCITEGIC>MOL_PROPERTY
Valence
SciTegic.value.DoubleValue
2.149

@<SCITEGIC>MOL_PROPERTY
Coulomb
SciTegic.value.DoubleValue
45.034

@<SCITEGIC>MOL_PROPERTY
VdW
SciTegic.value.DoubleValue
0.378

@<SCITEGIC>MOL_PROPERTY
VdW6
SciTegic.value.DoubleValue
-5.599

@<SCITEGIC>MOL_PROPERTY
VdW12
SciTegic.value.DoubleValue
5.977

@<SCITEGIC>MOL_PROPERTY
Bond
SciTegic.value.DoubleValue
0.185

@<SCITEGIC>MOL_PROPERTY
Angle
SciTegic.value.DoubleValue
0.935

@<SCITEGIC>MOL_PROPERTY
Pdih
SciTegic.value.DoubleValue
1.028

@<SCITEGIC>MOL_PROPERTY
Idih
SciTegic.value.DoubleValue
0.000

@<SCITEGIC>MOL_PROPERTY
Tether
SciTegic.value.DoubleValue
0.000

@<TRIPOS>MOLECULE
guest-s11_confgen4.mol2 : confsearch ligand conformer 460
          20          19           1
SMALL
USER_CHARGES
 
@<TRIPOS>ATOM
       1    N1      18.879571   20.107637   20.693390 N.4        1 MOL1        -0.5919
       2    H1      19.353063   20.265883   19.798515 H          1 MOL1         0.3682
       3    H2      18.615335   19.118644   20.725217 H          1 MOL1         0.3682
       4    H3      18.010101   20.650622   20.671081 H          1 MOL1         0.3682
       5    C1      19.754780   20.492692   21.870139 C.3        1 MOL1         0.0252
       6    H4      19.181709   20.331821   22.787005 H          1 MOL1         0.0971
       7    H5      19.971069   21.561378   21.788678 H          1 MOL1         0.0971
       8    C2      21.079566   19.706387   21.940528 C.3        1 MOL1        -0.1369
       9    H6      21.662079   19.901778   21.030507 H          1 MOL1         0.0997
      10    H7      21.680531   20.099369   22.770552 H          1 MOL1         0.0997
      11    C3      20.895758   18.175221   22.110044 C.3        1 MOL1        -0.1329
      12    H8      21.886647   17.706276   22.183725 H          1 MOL1         0.0997
      13    H9      20.438562   17.761235   21.201312 H          1 MOL1         0.0997
      14    C4      20.045941   17.754084   23.336214 C.3        1 MOL1        -0.1305
      15    H10     19.019723   18.132658   23.235949 H          1 MOL1         0.0997
      16    H11     19.963437   16.658206   23.345945 H          1 MOL1         0.0997
      17    C5      20.641560   18.220189   24.684110 C.3        1 MOL1        -0.2320
      18    H12     20.638963   19.313997   24.768841 H          1 MOL1         0.1008
      19    H13     20.054184   17.822895   25.521984 H          1 MOL1         0.1008
      20    H14     21.674633   17.868302   24.801989 H          1 MOL1         0.1008
@<TRIPOS>BOND
    1     1     2    1
    2     1     3    1
    3     1     4    1
    4     1     5    1
    5     5     6    1
    6     5     7    1
    7     5     8    1
    8     8     9    1
    9     8    10    1
   10     8    11    1
   11    11    12    1
   12    11    13    1
   13    11    14    1
   14    14    15    1
   15    14    16    1
   16    14    17    1
   17    17    18    1
   18    17    19    1
   19    17    20    1
@<TRIPOS>SUBSTRUCTURE
       1 MOL1            1 RESIDUE      1      MOL     
@<SCITEGIC>MOL_PROPERTY
VConf Rank
SciTegic.value.IntegerValue
460

@<SCITEGIC>MOL_PROPERTY
Conf_Id
SciTegic.value.IntegerValue
1

@<SCITEGIC>MOL_PROPERTY
Delta U+W
SciTegic.value.DoubleValue
1.032

@<SCITEGIC>MOL_PROPERTY
U+W
SciTegic.value.DoubleValue
-10.746

@<SCITEGIC>MOL_PROPERTY
Grad RMS
SciTegic.value.DoubleValue
0.000000

@<SCITEGIC>MOL_PROPERTY
U
SciTegic.value.DoubleValue
47.562

@<SCITEGIC>MOL_PROPERTY
W
SciTegic.value.DoubleValue
-58.308

@<SCITEGIC>MOL_PROPERTY
W(PB)
SciTegic.value.DoubleValue
-60.184

@<SCITEGIC>MOL_PROPERTY
W(SA)
SciTegic.value.DoubleValue
1.877

@<SCITEGIC>MOL_PROPERTY
Valence
SciTegic.value.DoubleValue
2.149

@<SCITEGIC>MOL_PROPERTY
Coulomb
SciTegic.value.DoubleValue
45.035

@<SCITEGIC>MOL_PROPERTY
VdW
SciTegic.value.DoubleValue
0.378

@<SCITEGIC>MOL_PROPERTY
VdW6
SciTegic.value.DoubleValue
-5.599

@<SCITEGIC>MOL_PROPERTY
VdW12
SciTegic.value.DoubleValue
5.978

@<SCITEGIC>MOL_PROPERTY
Bond
SciTegic.value.DoubleValue
0.185

@<SCITEGIC>MOL_PROPERTY
Angle
SciTegic.value.DoubleValue
0.935

@<SCITEGIC>MOL_PROPERTY
Pdih
SciTegic.value.DoubleValue
1.028

@<SCITEGIC>MOL_PROPERTY
Idih
SciTegic.value.DoubleValue
0.000

@<SCITEGIC>MOL_PROPERTY
Tether
SciTegic.value.DoubleValue
0.000

@<TRIPOS>MOLECULE
guest-s11_confgen4.mol2 : confsearch ligand conformer 461
          20          19           1
SMALL
USER_CHARGES
 
@<TRIPOS>ATOM
       1    N1      21.478782   17.467792   21.395825 N.4        1 MOL1        -0.5919
       2    H1      22.214921   17.754755   20.743259 H          1 MOL1         0.3682
       3    H2      21.854291   17.575698   22.342416 H          1 MOL1         0.3682
       4    H3      21.323636   16.465106   21.247856 H          1 MOL1         0.3682
       5    C1      20.206501   18.269349   21.199452 C.3        1 MOL1         0.0252
       6    H4      19.460326   17.892808   21.900852 H          1 MOL1         0.0971
       7    H5      19.846122   18.070356   20.186509 H          1 MOL1         0.0971
       8    C2      20.393978   19.790880   21.379761 C.3        1 MOL1        -0.1369
       9    H6      21.157041   20.126877   20.665155 H          1 MOL1         0.0997
      10    H7      19.467894   20.307589   21.095156 H          1 MOL1         0.0997
      11    C3      20.816488   20.228719   22.808083 C.3        1 MOL1        -0.1329
      12    H8      21.314086   21.205080   22.727213 H          1 MOL1         0.0997
      13    H9      21.575230   19.547146   23.213660 H          1 MOL1         0.0997
      14    C4      19.650996   20.385513   23.818566 C.3        1 MOL1        -0.1305
      15    H10     20.060358   20.785169   24.756993 H          1 MOL1         0.0997
      16    H11     18.941796   21.140868   23.452155 H          1 MOL1         0.0997
      17    C5      18.891606   19.077618   24.132682 C.3        1 MOL1        -0.2320
      18    H12     19.584076   18.266589   24.392444 H          1 MOL1         0.1008
      19    H13     18.213737   19.224668   24.983445 H          1 MOL1         0.1008
      20    H14     18.277422   18.758182   23.282510 H          1 MOL1         0.1008
@<TRIPOS>BOND
    1     1     2    1
    2     1     3    1
    3     1     4    1
    4     1     5    1
    5     5     6    1
    6     5     7    1
    7     5     8    1
    8     8     9    1
    9     8    10    1
   10     8    11    1
   11    11    12    1
   12    11    13    1
   13    11    14    1
   14    14    15    1
   15    14    16    1
   16    14    17    1
   17    17    18    1
   18    17    19    1
   19    17    20    1
@<TRIPOS>SUBSTRUCTURE
       1 MOL1            1 RESIDUE      1      MOL     
@<SCITEGIC>MOL_PROPERTY
VConf Rank
SciTegic.value.IntegerValue
461

@<SCITEGIC>MOL_PROPERTY
Conf_Id
SciTegic.value.IntegerValue
80

@<SCITEGIC>MOL_PROPERTY
Delta U+W
SciTegic.value.DoubleValue
2.920

@<SCITEGIC>MOL_PROPERTY
U+W
SciTegic.value.DoubleValue
-8.857

@<SCITEGIC>MOL_PROPERTY
Grad RMS
SciTegic.value.DoubleValue
0.000000

@<SCITEGIC>MOL_PROPERTY
U
SciTegic.value.DoubleValue
49.434

@<SCITEGIC>MOL_PROPERTY
W
SciTegic.value.DoubleValue
-58.292

@<SCITEGIC>MOL_PROPERTY
W(PB)
SciTegic.value.DoubleValue
-60.170

@<SCITEGIC>MOL_PROPERTY
W(SA)
SciTegic.value.DoubleValue
1.879

@<SCITEGIC>MOL_PROPERTY
Valence
SciTegic.value.DoubleValue
3.798

@<SCITEGIC>MOL_PROPERTY
Coulomb
SciTegic.value.DoubleValue
45.253

@<SCITEGIC>MOL_PROPERTY
VdW
SciTegic.value.DoubleValue
0.384

@<SCITEGIC>MOL_PROPERTY
VdW6
SciTegic.value.DoubleValue
-5.595

@<SCITEGIC>MOL_PROPERTY
VdW12
SciTegic.value.DoubleValue
5.979

@<SCITEGIC>MOL_PROPERTY
Bond
SciTegic.value.DoubleValue
0.198

@<SCITEGIC>MOL_PROPERTY
Angle
SciTegic.value.DoubleValue
1.368

@<SCITEGIC>MOL_PROPERTY
Pdih
SciTegic.value.DoubleValue
2.231

@<SCITEGIC>MOL_PROPERTY
Idih
SciTegic.value.DoubleValue
0.000

@<SCITEGIC>MOL_PROPERTY
Tether
SciTegic.value.DoubleValue
0.000

@<TRIPOS>MOLECULE
guest-s11_confgen4.mol2 : confsearch ligand conformer 462
          20          19           1
SMALL
USER_CHARGES
 
@<TRIPOS>ATOM
       1    N1      20.453269   21.516579   22.633612 N.4        1 MOL1        -0.5919
       2    H1      20.416335   21.959480   23.556957 H          1 MOL1         0.3682
       3    H2      20.817351   22.218434   21.980779 H          1 MOL1         0.3682
       4    H3      19.488184   21.319768   22.353322 H          1 MOL1         0.3682
       5    C1      21.304446   20.261525   22.643240 C.3        1 MOL1         0.0252
       6    H4      22.322992   20.557612   22.908607 H          1 MOL1         0.0971
       7    H5      21.325179   19.861617   21.628272 H          1 MOL1         0.0971
       8    C2      20.816165   19.184468   23.635339 C.3        1 MOL1        -0.1369
       9    H6      21.551251   18.369978   23.678613 H          1 MOL1         0.0997
      10    H7      20.800691   19.628602   24.639493 H          1 MOL1         0.0997
      11    C3      19.411518   18.601863   23.322508 C.3        1 MOL1        -0.1329
      12    H8      18.720266   19.398804   23.019563 H          1 MOL1         0.0997
      13    H9      18.999356   18.197298   24.257320 H          1 MOL1         0.0997
      14    C4      19.393105   17.458409   22.275506 C.3        1 MOL1        -0.1305
      15    H10     20.011756   16.621825   22.629315 H          1 MOL1         0.0997
      16    H11     18.367485   17.069018   22.208967 H          1 MOL1         0.0997
      17    C5      19.852323   17.874313   20.860561 C.3        1 MOL1        -0.2320
      18    H12     20.933192   18.055255   20.828384 H          1 MOL1         0.1008
      19    H13     19.637140   17.075439   20.139155 H          1 MOL1         0.1008
      20    H14     19.332525   18.779959   20.522367 H          1 MOL1         0.1008
@<TRIPOS>BOND
    1     1     2    1
    2     1     3    1
    3     1     4    1
    4     1     5    1
    5     5     6    1
    6     5     7    1
    7     5     8    1
    8     8     9    1
    9     8    10    1
   10     8    11    1
   11    11    12    1
   12    11    13    1
   13    11    14    1
   14    14    15    1
   15    14    16    1
   16    14    17    1
   17    17    18    1
   18    17    19    1
   19    17    20    1
@<TRIPOS>SUBSTRUCTURE
       1 MOL1            1 RESIDUE      1      MOL     
@<SCITEGIC>MOL_PROPERTY
VConf Rank
SciTegic.value.IntegerValue
462

@<SCITEGIC>MOL_PROPERTY
Conf_Id
SciTegic.value.IntegerValue
65

@<SCITEGIC>MOL_PROPERTY
Delta U+W
SciTegic.value.DoubleValue
2.949

@<SCITEGIC>MOL_PROPERTY
U+W
SciTegic.value.DoubleValue
-8.829

@<SCITEGIC>MOL_PROPERTY
Grad RMS
SciTegic.value.DoubleValue
0.000000

@<SCITEGIC>MOL_PROPERTY
U
SciTegic.value.DoubleValue
49.435

@<SCITEGIC>MOL_PROPERTY
W
SciTegic.value.DoubleValue
-58.263

@<SCITEGIC>MOL_PROPERTY
W(PB)
SciTegic.value.DoubleValue
-60.125

@<SCITEGIC>MOL_PROPERTY
W(SA)
SciTegic.value.DoubleValue
1.862

@<SCITEGIC>MOL_PROPERTY
Valence
SciTegic.value.DoubleValue
3.797

@<SCITEGIC>MOL_PROPERTY
Coulomb
SciTegic.value.DoubleValue
45.253

@<SCITEGIC>MOL_PROPERTY
VdW
SciTegic.value.DoubleValue
0.384

@<SCITEGIC>MOL_PROPERTY
VdW6
SciTegic.value.DoubleValue
-5.596

@<SCITEGIC>MOL_PROPERTY
VdW12
SciTegic.value.DoubleValue
5.980

@<SCITEGIC>MOL_PROPERTY
Bond
SciTegic.value.DoubleValue
0.198

@<SCITEGIC>MOL_PROPERTY
Angle
SciTegic.value.DoubleValue
1.369

@<SCITEGIC>MOL_PROPERTY
Pdih
SciTegic.value.DoubleValue
2.230

@<SCITEGIC>MOL_PROPERTY
Idih
SciTegic.value.DoubleValue
0.000

@<SCITEGIC>MOL_PROPERTY
Tether
SciTegic.value.DoubleValue
0.000

@<TRIPOS>MOLECULE
guest-s11_confgen4.mol2 : confsearch ligand conformer 463
          20          19           1
SMALL
USER_CHARGES
 
@<TRIPOS>ATOM
       1    N1      19.906819   19.896811   24.301063 N.4        1 MOL1        -0.5919
       2    H1      20.452265   19.909230   25.169405 H          1 MOL1         0.3682
       3    H2      20.443228   20.410794   23.595505 H          1 MOL1         0.3682
       4    H3      19.049515   20.429168   24.480033 H          1 MOL1         0.3682
       5    C1      19.605680   18.482362   23.844769 C.3        1 MOL1         0.0252
       6    H4      19.033805   18.003721   24.644383 H          1 MOL1         0.0971
       7    H5      20.549218   17.941732   23.732274 H          1 MOL1         0.0971
       8    C2      18.798253   18.405619   22.533059 C.3        1 MOL1        -0.1369
       9    H6      18.288177   17.433416   22.511778 H          1 MOL1         0.0997
      10    H7      18.000885   19.160550   22.542594 H          1 MOL1         0.0997
      11    C3      19.636566   18.528742   21.232316 C.3        1 MOL1        -0.1329
      12    H8      18.948208   18.402512   20.385112 H          1 MOL1         0.0997
      13    H9      20.344198   17.691005   21.162175 H          1 MOL1         0.0997
      14    C4      20.384374   19.873622   21.046301 C.3        1 MOL1        -0.1305
      15    H10     20.381665   20.130578   19.977552 H          1 MOL1         0.0997
      16    H11     19.842218   20.687302   21.546557 H          1 MOL1         0.0997
      17    C5      21.857746   19.819614   21.515423 C.3        1 MOL1        -0.2320
      18    H12     21.954466   19.499495   22.558382 H          1 MOL1         0.1008
      19    H13     22.432821   19.114762   20.900772 H          1 MOL1         0.1008
      20    H14     22.331320   20.805185   21.417652 H          1 MOL1         0.1008
@<TRIPOS>BOND
    1     1     2    1
    2     1     3    1
    3     1     4    1
    4     1     5    1
    5     5     6    1
    6     5     7    1
    7     5     8    1
    8     8     9    1
    9     8    10    1
   10     8    11    1
   11    11    12    1
   12    11    13    1
   13    11    14    1
   14    14    15    1
   15    14    16    1
   16    14    17    1
   17    17    18    1
   18    17    19    1
   19    17    20    1
@<TRIPOS>SUBSTRUCTURE
       1 MOL1            1 RESIDUE      1      MOL     
@<SCITEGIC>MOL_PROPERTY
VConf Rank
SciTegic.value.IntegerValue
463

@<SCITEGIC>MOL_PROPERTY
Conf_Id
SciTegic.value.IntegerValue
77

@<SCITEGIC>MOL_PROPERTY
Delta U+W
SciTegic.value.DoubleValue
5.366

@<SCITEGIC>MOL_PROPERTY
U+W
SciTegic.value.DoubleValue
-6.412

@<SCITEGIC>MOL_PROPERTY
Grad RMS
SciTegic.value.DoubleValue
0.000000

@<SCITEGIC>MOL_PROPERTY
U
SciTegic.value.DoubleValue
51.542

@<SCITEGIC>MOL_PROPERTY
W
SciTegic.value.DoubleValue
-57.954

@<SCITEGIC>MOL_PROPERTY
W(PB)
SciTegic.value.DoubleValue
-59.811

@<SCITEGIC>MOL_PROPERTY
W(SA)
SciTegic.value.DoubleValue
1.857

@<SCITEGIC>MOL_PROPERTY
Valence
SciTegic.value.DoubleValue
5.347

@<SCITEGIC>MOL_PROPERTY
Coulomb
SciTegic.value.DoubleValue
45.870

@<SCITEGIC>MOL_PROPERTY
VdW
SciTegic.value.DoubleValue
0.325

@<SCITEGIC>MOL_PROPERTY
VdW6
SciTegic.value.DoubleValue
-6.161

@<SCITEGIC>MOL_PROPERTY
VdW12
SciTegic.value.DoubleValue
6.486

@<SCITEGIC>MOL_PROPERTY
Bond
SciTegic.value.DoubleValue
0.201

@<SCITEGIC>MOL_PROPERTY
Angle
SciTegic.value.DoubleValue
1.484

@<SCITEGIC>MOL_PROPERTY
Pdih
SciTegic.value.DoubleValue
3.662

@<SCITEGIC>MOL_PROPERTY
Idih
SciTegic.value.DoubleValue
0.000

@<SCITEGIC>MOL_PROPERTY
Tether
SciTegic.value.DoubleValue
0.000

@<TRIPOS>MOLECULE
guest-s11_confgen4.mol2 : confsearch ligand conformer 464
          20          19           1
SMALL
USER_CHARGES
 
@<TRIPOS>ATOM
       1    N1      21.298209   18.991065   20.813047 N.4        1 MOL1        -0.5919
       2    H1      20.832952   18.597968   19.988779 H          1 MOL1         0.3682
       3    H2      20.770517   19.823441   21.093080 H          1 MOL1         0.3682
       4    H3      22.226519   19.304550   20.510308 H          1 MOL1         0.3682
       5    C1      21.384251   17.984453   21.943927 C.3        1 MOL1         0.0252
       6    H4      21.944488   18.431416   22.769493 H          1 MOL1         0.0971
       7    H5      21.955734   17.130983   21.569070 H          1 MOL1         0.0971
       8    C2      20.013315   17.489851   22.448221 C.3        1 MOL1        -0.1369
       9    H6      19.349335   17.300442   21.594369 H          1 MOL1         0.0997
      10    H7      20.166765   16.514470   22.928737 H          1 MOL1         0.0997
      11    C3      19.312328   18.418549   23.475840 C.3        1 MOL1        -0.1329
      12    H8      19.921902   18.496641   24.386767 H          1 MOL1         0.0997
      13    H9      18.383030   17.921395   23.786917 H          1 MOL1         0.0997
      14    C4      18.948774   19.832914   22.956301 C.3        1 MOL1        -0.1305
      15    H10     18.764081   19.809105   21.873903 H          1 MOL1         0.0997
      16    H11     17.996155   20.138728   23.411552 H          1 MOL1         0.0997
      17    C5      20.008037   20.902478   23.313810 C.3        1 MOL1        -0.2320
      18    H12     19.738406   21.874231   22.880015 H          1 MOL1         0.1008
      19    H13     20.072310   21.033295   24.401963 H          1 MOL1         0.1008
      20    H14     21.008767   20.637896   22.955858 H          1 MOL1         0.1008
@<TRIPOS>BOND
    1     1     2    1
    2     1     3    1
    3     1     4    1
    4     1     5    1
    5     5     6    1
    6     5     7    1
    7     5     8    1
    8     8     9    1
    9     8    10    1
   10     8    11    1
   11    11    12    1
   12    11    13    1
   13    11    14    1
   14    14    15    1
   15    14    16    1
   16    14    17    1
   17    17    18    1
   18    17    19    1
   19    17    20    1
@<TRIPOS>SUBSTRUCTURE
       1 MOL1            1 RESIDUE      1      MOL     
@<SCITEGIC>MOL_PROPERTY
VConf Rank
SciTegic.value.IntegerValue
464

@<SCITEGIC>MOL_PROPERTY
Conf_Id
SciTegic.value.IntegerValue
67

@<SCITEGIC>MOL_PROPERTY
Delta U+W
SciTegic.value.DoubleValue
5.353

@<SCITEGIC>MOL_PROPERTY
U+W
SciTegic.value.DoubleValue
-6.425

@<SCITEGIC>MOL_PROPERTY
Grad RMS
SciTegic.value.DoubleValue
0.000000

@<SCITEGIC>MOL_PROPERTY
U
SciTegic.value.DoubleValue
51.541

@<SCITEGIC>MOL_PROPERTY
W
SciTegic.value.DoubleValue
-57.966

@<SCITEGIC>MOL_PROPERTY
W(PB)
SciTegic.value.DoubleValue
-59.821

@<SCITEGIC>MOL_PROPERTY
W(SA)
SciTegic.value.DoubleValue
1.855

@<SCITEGIC>MOL_PROPERTY
Valence
SciTegic.value.DoubleValue
5.347

@<SCITEGIC>MOL_PROPERTY
Coulomb
SciTegic.value.DoubleValue
45.870

@<SCITEGIC>MOL_PROPERTY
VdW
SciTegic.value.DoubleValue
0.325

@<SCITEGIC>MOL_PROPERTY
VdW6
SciTegic.value.DoubleValue
-6.161

@<SCITEGIC>MOL_PROPERTY
VdW12
SciTegic.value.DoubleValue
6.486

@<SCITEGIC>MOL_PROPERTY
Bond
SciTegic.value.DoubleValue
0.201

@<SCITEGIC>MOL_PROPERTY
Angle
SciTegic.value.DoubleValue
1.485

@<SCITEGIC>MOL_PROPERTY
Pdih
SciTegic.value.DoubleValue
3.662

@<SCITEGIC>MOL_PROPERTY
Idih
SciTegic.value.DoubleValue
0.000

@<SCITEGIC>MOL_PROPERTY
Tether
SciTegic.value.DoubleValue
0.000

@<TRIPOS>MOLECULE
guest-s11_confgen4.mol2 : confsearch ligand conformer 465
          20          19           1
SMALL
USER_CHARGES
 
@<TRIPOS>ATOM
       1    N1      17.179518   17.979150   22.902036 N.4        1 MOL1        -0.5919
       2    H1      17.247240   17.787361   23.906535 H          1 MOL1         0.3682
       3    H2      16.218337   18.288290   22.722694 H          1 MOL1         0.3682
       4    H3      17.299445   17.084908   22.415892 H          1 MOL1         0.3682
       5    C1      18.195609   19.009485   22.452085 C.3        1 MOL1         0.0252
       6    H4      17.990364   19.941413   22.985848 H          1 MOL1         0.0971
       7    H5      18.046623   19.186134   21.383388 H          1 MOL1         0.0971
       8    C2      19.650341   18.576102   22.707430 C.3        1 MOL1        -0.1369
       9    H6      19.791164   18.384391   23.779570 H          1 MOL1         0.0997
      10    H7      19.847246   17.631707   22.182632 H          1 MOL1         0.0997
      11    C3      20.652786   19.652614   22.235248 C.3        1 MOL1        -0.1329
      12    H8      20.449551   20.597475   22.758434 H          1 MOL1         0.0997
      13    H9      20.505632   19.845639   21.163390 H          1 MOL1         0.0997
      14    C4      22.117083   19.228225   22.486777 C.3        1 MOL1        -0.1305
      15    H10     22.269207   19.036127   23.558227 H          1 MOL1         0.0997
      16    H11     22.325320   18.284458   21.963338 H          1 MOL1         0.0997
      17    C5      23.114974   20.306774   22.013573 C.3        1 MOL1        -0.2320
      18    H12     22.954100   21.254032   22.544644 H          1 MOL1         0.1008
      19    H13     24.148497   19.987501   22.200492 H          1 MOL1         0.1008
      20    H14     23.010755   20.496401   20.937285 H          1 MOL1         0.1008
@<TRIPOS>BOND
    1     1     2    1
    2     1     3    1
    3     1     4    1
    4     1     5    1
    5     5     6    1
    6     5     7    1
    7     5     8    1
    8     8     9    1
    9     8    10    1
   10     8    11    1
   11    11    12    1
   12    11    13    1
   13    11    14    1
   14    14    15    1
   15    14    16    1
   16    14    17    1
   17    17    18    1
   18    17    19    1
   19    17    20    1
@<TRIPOS>SUBSTRUCTURE
       1 MOL1            1 RESIDUE      1      MOL     
@<SCITEGIC>MOL_PROPERTY
VConf Rank
SciTegic.value.IntegerValue
465

@<SCITEGIC>MOL_PROPERTY
Conf_Id
SciTegic.value.IntegerValue
72

@<SCITEGIC>MOL_PROPERTY
Delta U+W
SciTegic.value.DoubleValue
0.000

@<SCITEGIC>MOL_PROPERTY
U+W
SciTegic.value.DoubleValue
-11.778

@<SCITEGIC>MOL_PROPERTY
Grad RMS
SciTegic.value.DoubleValue
0.000000

@<SCITEGIC>MOL_PROPERTY
U
SciTegic.value.DoubleValue
45.772

@<SCITEGIC>MOL_PROPERTY
W
SciTegic.value.DoubleValue
-57.550

@<SCITEGIC>MOL_PROPERTY
W(PB)
SciTegic.value.DoubleValue
-59.511

@<SCITEGIC>MOL_PROPERTY
W(SA)
SciTegic.value.DoubleValue
1.961

@<SCITEGIC>MOL_PROPERTY
Valence
SciTegic.value.DoubleValue
1.299

@<SCITEGIC>MOL_PROPERTY
Coulomb
SciTegic.value.DoubleValue
44.177

@<SCITEGIC>MOL_PROPERTY
VdW
SciTegic.value.DoubleValue
0.297

@<SCITEGIC>MOL_PROPERTY
VdW6
SciTegic.value.DoubleValue
-3.490

@<SCITEGIC>MOL_PROPERTY
VdW12
SciTegic.value.DoubleValue
3.786

@<SCITEGIC>MOL_PROPERTY
Bond
SciTegic.value.DoubleValue
0.096

@<SCITEGIC>MOL_PROPERTY
Angle
SciTegic.value.DoubleValue
0.381

@<SCITEGIC>MOL_PROPERTY
Pdih
SciTegic.value.DoubleValue
0.822

@<SCITEGIC>MOL_PROPERTY
Idih
SciTegic.value.DoubleValue
0.000

@<SCITEGIC>MOL_PROPERTY
Tether
SciTegic.value.DoubleValue
0.000

@<TRIPOS>MOLECULE
guest-s11_confgen4.mol2 : confsearch ligand conformer 466
          20          19           1
SMALL
USER_CHARGES
 
@<TRIPOS>ATOM
       1    N1      22.413149   21.083660   22.256857 N.4        1 MOL1        -0.5919
       2    H1      22.775271   20.584961   21.438015 H          1 MOL1         0.3682
       3    H2      21.889144   21.893001   21.909366 H          1 MOL1         0.3682
       4    H3      23.225111   21.450926   22.764218 H          1 MOL1         0.3682
       5    C1      21.559107   20.189516   23.133038 C.3        1 MOL1         0.0252
       6    H4      21.234501   20.774961   23.997549 H          1 MOL1         0.0971
       7    H5      22.186449   19.368469   23.490572 H          1 MOL1         0.0971
       8    C2      20.329860   19.621036   22.401567 C.3        1 MOL1        -0.1369
       9    H6      19.711078   20.448808   22.030469 H          1 MOL1         0.0997
      10    H7      20.666398   19.050784   21.526570 H          1 MOL1         0.0997
      11    C3      19.487267   18.717806   23.332880 C.3        1 MOL1        -0.1329
      12    H8      19.224720   19.283233   24.237923 H          1 MOL1         0.0997
      13    H9      20.092773   17.864006   23.667505 H          1 MOL1         0.0997
      14    C4      18.182392   18.202148   22.678610 C.3        1 MOL1        -0.1305
      15    H10     17.598218   17.660786   23.435979 H          1 MOL1         0.0997
      16    H11     17.562561   19.053402   22.363887 H          1 MOL1         0.0997
      17    C5      18.427282   17.264222   21.474512 C.3        1 MOL1        -0.2320
      18    H12     19.068437   16.418840   21.756052 H          1 MOL1         0.1008
      19    H13     17.477181   16.856082   21.106161 H          1 MOL1         0.1008
      20    H14     18.903130   17.794249   20.640208 H          1 MOL1         0.1008
@<TRIPOS>BOND
    1     1     2    1
    2     1     3    1
    3     1     4    1
    4     1     5    1
    5     5     6    1
    6     5     7    1
    7     5     8    1
    8     8     9    1
    9     8    10    1
   10     8    11    1
   11    11    12    1
   12    11    13    1
   13    11    14    1
   14    14    15    1
   15    14    16    1
   16    14    17    1
   17    17    18    1
   18    17    19    1
   19    17    20    1
@<TRIPOS>SUBSTRUCTURE
       1 MOL1            1 RESIDUE      1      MOL     
@<SCITEGIC>MOL_PROPERTY
VConf Rank
SciTegic.value.IntegerValue
466

@<SCITEGIC>MOL_PROPERTY
Conf_Id
SciTegic.value.IntegerValue
42

@<SCITEGIC>MOL_PROPERTY
Delta U+W
SciTegic.value.DoubleValue
0.508

@<SCITEGIC>MOL_PROPERTY
U+W
SciTegic.value.DoubleValue
-11.270

@<SCITEGIC>MOL_PROPERTY
Grad RMS
SciTegic.value.DoubleValue
0.000000

@<SCITEGIC>MOL_PROPERTY
U
SciTegic.value.DoubleValue
46.486

@<SCITEGIC>MOL_PROPERTY
W
SciTegic.value.DoubleValue
-57.756

@<SCITEGIC>MOL_PROPERTY
W(PB)
SciTegic.value.DoubleValue
-59.705

@<SCITEGIC>MOL_PROPERTY
W(SA)
SciTegic.value.DoubleValue
1.949

@<SCITEGIC>MOL_PROPERTY
Valence
SciTegic.value.DoubleValue
1.806

@<SCITEGIC>MOL_PROPERTY
Coulomb
SciTegic.value.DoubleValue
44.248

@<SCITEGIC>MOL_PROPERTY
VdW
SciTegic.value.DoubleValue
0.433

@<SCITEGIC>MOL_PROPERTY
VdW6
SciTegic.value.DoubleValue
-4.089

@<SCITEGIC>MOL_PROPERTY
VdW12
SciTegic.value.DoubleValue
4.522

@<SCITEGIC>MOL_PROPERTY
Bond
SciTegic.value.DoubleValue
0.131

@<SCITEGIC>MOL_PROPERTY
Angle
SciTegic.value.DoubleValue
0.628

@<SCITEGIC>MOL_PROPERTY
Pdih
SciTegic.value.DoubleValue
1.047

@<SCITEGIC>MOL_PROPERTY
Idih
SciTegic.value.DoubleValue
0.000

@<SCITEGIC>MOL_PROPERTY
Tether
SciTegic.value.DoubleValue
0.000

@<TRIPOS>MOLECULE
guest-s11_confgen4.mol2 : confsearch ligand conformer 467
          20          19           1
SMALL
USER_CHARGES
 
@<TRIPOS>ATOM
       1    N1      20.205860   21.347312   20.538859 N.4        1 MOL1        -0.5919
       2    H1      19.707212   22.028780   21.119647 H          1 MOL1         0.3682
       3    H2      21.207946   21.492165   20.697522 H          1 MOL1         0.3682
       4    H3      20.020459   21.597476   19.561809 H          1 MOL1         0.3682
       5    C1      19.783326   19.924663   20.845645 C.3        1 MOL1         0.0252
       6    H4      20.329393   19.257784   20.172896 H          1 MOL1         0.0971
       7    H5      18.715996   19.834952   20.625980 H          1 MOL1         0.0971
       8    C2      20.047533   19.516382   22.306046 C.3        1 MOL1        -0.1369
       9    H6      21.117979   19.627240   22.520343 H          1 MOL1         0.0997
      10    H7      19.510145   20.198272   22.978394 H          1 MOL1         0.0997
      11    C3      19.599636   18.060175   22.574343 C.3        1 MOL1        -0.1329
      12    H8      20.170539   17.373376   21.934059 H          1 MOL1         0.0997
      13    H9      18.545986   17.950355   22.281934 H          1 MOL1         0.0997
      14    C4      19.747170   17.631072   24.054469 C.3        1 MOL1        -0.1305
      15    H10     19.158288   18.301141   24.696423 H          1 MOL1         0.0997
      16    H11     19.312200   16.629110   24.176172 H          1 MOL1         0.0997
      17    C5      21.213629   17.599893   24.542382 C.3        1 MOL1        -0.2320
      18    H12     21.656658   18.603395   24.553850 H          1 MOL1         0.1008
      19    H13     21.269973   17.203485   25.564458 H          1 MOL1         0.1008
      20    H14     21.830413   16.958384   23.899687 H          1 MOL1         0.1008
@<TRIPOS>BOND
    1     1     2    1
    2     1     3    1
    3     1     4    1
    4     1     5    1
    5     5     6    1
    6     5     7    1
    7     5     8    1
    8     8     9    1
    9     8    10    1
   10     8    11    1
   11    11    12    1
   12    11    13    1
   13    11    14    1
   14    14    15    1
   15    14    16    1
   16    14    17    1
   17    17    18    1
   18    17    19    1
   19    17    20    1
@<TRIPOS>SUBSTRUCTURE
       1 MOL1            1 RESIDUE      1      MOL     
@<SCITEGIC>MOL_PROPERTY
VConf Rank
SciTegic.value.IntegerValue
467

@<SCITEGIC>MOL_PROPERTY
Conf_Id
SciTegic.value.IntegerValue
41

@<SCITEGIC>MOL_PROPERTY
Delta U+W
SciTegic.value.DoubleValue
0.515

@<SCITEGIC>MOL_PROPERTY
U+W
SciTegic.value.DoubleValue
-11.263

@<SCITEGIC>MOL_PROPERTY
Grad RMS
SciTegic.value.DoubleValue
0.000000

@<SCITEGIC>MOL_PROPERTY
U
SciTegic.value.DoubleValue
46.486

@<SCITEGIC>MOL_PROPERTY
W
SciTegic.value.DoubleValue
-57.749

@<SCITEGIC>MOL_PROPERTY
W(PB)
SciTegic.value.DoubleValue
-59.685

@<SCITEGIC>MOL_PROPERTY
W(SA)
SciTegic.value.DoubleValue
1.936

@<SCITEGIC>MOL_PROPERTY
Valence
SciTegic.value.DoubleValue
1.806

@<SCITEGIC>MOL_PROPERTY
Coulomb
SciTegic.value.DoubleValue
44.248

@<SCITEGIC>MOL_PROPERTY
VdW
SciTegic.value.DoubleValue
0.433

@<SCITEGIC>MOL_PROPERTY
VdW6
SciTegic.value.DoubleValue
-4.089

@<SCITEGIC>MOL_PROPERTY
VdW12
SciTegic.value.DoubleValue
4.522

@<SCITEGIC>MOL_PROPERTY
Bond
SciTegic.value.DoubleValue
0.131

@<SCITEGIC>MOL_PROPERTY
Angle
SciTegic.value.DoubleValue
0.628

@<SCITEGIC>MOL_PROPERTY
Pdih
SciTegic.value.DoubleValue
1.047

@<SCITEGIC>MOL_PROPERTY
Idih
SciTegic.value.DoubleValue
0.000

@<SCITEGIC>MOL_PROPERTY
Tether
SciTegic.value.DoubleValue
0.000

@<TRIPOS>MOLECULE
guest-s11_confgen4.mol2 : confsearch ligand conformer 468
          20          19           1
SMALL
USER_CHARGES
 
@<TRIPOS>ATOM
       1    N1      20.021979   17.717762   20.086241 N.4        1 MOL1        -0.5919
       2    H1      20.340042   16.966757   19.464687 H          1 MOL1         0.3682
       3    H2      19.215745   17.355208   20.603427 H          1 MOL1         0.3682
       4    H3      19.681331   18.475994   19.486877 H          1 MOL1         0.3682
       5    C1      21.126080   18.184684   21.015278 C.3        1 MOL1         0.0252
       6    H4      21.963457   18.513909   20.393982 H          1 MOL1         0.0971
       7    H5      21.458405   17.327088   21.606490 H          1 MOL1         0.0971
       8    C2      20.707784   19.332123   21.955640 C.3        1 MOL1        -0.1369
       9    H6      21.601375   19.670698   22.494593 H          1 MOL1         0.0997
      10    H7      20.358152   20.185406   21.359524 H          1 MOL1         0.0997
      11    C3      19.614741   18.907532   22.968605 C.3        1 MOL1        -0.1329
      12    H8      19.980118   18.068408   23.576748 H          1 MOL1         0.0997
      13    H9      18.736773   18.535296   22.424344 H          1 MOL1         0.0997
      14    C4      19.155190   20.057489   23.897794 C.3        1 MOL1        -0.1305
      15    H10     18.775980   20.894184   23.294465 H          1 MOL1         0.0997
      16    H11     18.306601   19.705038   24.500799 H          1 MOL1         0.0997
      17    C5      20.264244   20.562624   24.848900 C.3        1 MOL1        -0.2320
      18    H12     21.083395   21.040004   24.297204 H          1 MOL1         0.1008
      19    H13     19.860945   21.306924   25.547694 H          1 MOL1         0.1008
      20    H14     20.682194   19.738620   25.441639 H          1 MOL1         0.1008
@<TRIPOS>BOND
    1     1     2    1
    2     1     3    1
    3     1     4    1
    4     1     5    1
    5     5     6    1
    6     5     7    1
    7     5     8    1
    8     8     9    1
    9     8    10    1
   10     8    11    1
   11    11    12    1
   12    11    13    1
   13    11    14    1
   14    14    15    1
   15    14    16    1
   16    14    17    1
   17    17    18    1
   18    17    19    1
   19    17    20    1
@<TRIPOS>SUBSTRUCTURE
       1 MOL1            1 RESIDUE      1      MOL     
@<SCITEGIC>MOL_PROPERTY
VConf Rank
SciTegic.value.IntegerValue
468

@<SCITEGIC>MOL_PROPERTY
Conf_Id
SciTegic.value.IntegerValue
33

@<SCITEGIC>MOL_PROPERTY
Delta U+W
SciTegic.value.DoubleValue
0.703

@<SCITEGIC>MOL_PROPERTY
U+W
SciTegic.value.DoubleValue
-11.075

@<SCITEGIC>MOL_PROPERTY
Grad RMS
SciTegic.value.DoubleValue
0.000000

@<SCITEGIC>MOL_PROPERTY
U
SciTegic.value.DoubleValue
47.080

@<SCITEGIC>MOL_PROPERTY
W
SciTegic.value.DoubleValue
-58.154

@<SCITEGIC>MOL_PROPERTY
W(PB)
SciTegic.value.DoubleValue
-60.053

@<SCITEGIC>MOL_PROPERTY
W(SA)
SciTegic.value.DoubleValue
1.899

@<SCITEGIC>MOL_PROPERTY
Valence
SciTegic.value.DoubleValue
1.943

@<SCITEGIC>MOL_PROPERTY
Coulomb
SciTegic.value.DoubleValue
44.572

@<SCITEGIC>MOL_PROPERTY
VdW
SciTegic.value.DoubleValue
0.565

@<SCITEGIC>MOL_PROPERTY
VdW6
SciTegic.value.DoubleValue
-4.575

@<SCITEGIC>MOL_PROPERTY
VdW12
SciTegic.value.DoubleValue
5.139

@<SCITEGIC>MOL_PROPERTY
Bond
SciTegic.value.DoubleValue
0.158

@<SCITEGIC>MOL_PROPERTY
Angle
SciTegic.value.DoubleValue
0.700

@<SCITEGIC>MOL_PROPERTY
Pdih
SciTegic.value.DoubleValue
1.085

@<SCITEGIC>MOL_PROPERTY
Idih
SciTegic.value.DoubleValue
0.000

@<SCITEGIC>MOL_PROPERTY
Tether
SciTegic.value.DoubleValue
0.000

@<TRIPOS>MOLECULE
guest-s11_confgen4.mol2 : confsearch ligand conformer 469
          20          19           1
SMALL
USER_CHARGES
 
@<TRIPOS>ATOM
       1    N1      18.989120   21.540663   21.773174 N.4        1 MOL1        -0.5919
       2    H1      18.231256   22.228562   21.835920 H          1 MOL1         0.3682
       3    H2      19.849227   22.062350   21.577593 H          1 MOL1         0.3682
       4    H3      18.795524   20.957874   20.953530 H          1 MOL1         0.3682
       5    C1      19.105215   20.714365   23.039631 C.3        1 MOL1         0.0252
       6    H4      18.151599   20.204677   23.201733 H          1 MOL1         0.0971
       7    H5      19.266653   21.405504   23.871415 H          1 MOL1         0.0971
       8    C2      20.247446   19.679870   23.008161 C.3        1 MOL1        -0.1369
       9    H6      21.201455   20.192761   22.827881 H          1 MOL1         0.0997
      10    H7      20.318980   19.224457   24.003697 H          1 MOL1         0.0997
      11    C3      20.026858   18.576942   21.942325 C.3        1 MOL1        -0.1329
      12    H8      19.919567   19.040943   20.952981 H          1 MOL1         0.0997
      13    H9      19.081748   18.053254   22.142291 H          1 MOL1         0.0997
      14    C4      21.182188   17.548797   21.870861 C.3        1 MOL1        -0.1305
      15    H10     21.002381   16.875789   21.020761 H          1 MOL1         0.0997
      16    H11     22.127955   18.066327   21.657426 H          1 MOL1         0.0997
      17    C5      21.332031   16.699203   23.153633 C.3        1 MOL1        -0.2320
      18    H12     20.389905   16.195828   23.406648 H          1 MOL1         0.1008
      19    H13     22.098207   15.925574   23.014276 H          1 MOL1         0.1008
      20    H14     21.636135   17.311995   24.011116 H          1 MOL1         0.1008
@<TRIPOS>BOND
    1     1     2    1
    2     1     3    1
    3     1     4    1
    4     1     5    1
    5     5     6    1
    6     5     7    1
    7     5     8    1
    8     8     9    1
    9     8    10    1
   10     8    11    1
   11    11    12    1
   12    11    13    1
   13    11    14    1
   14    14    15    1
   15    14    16    1
   16    14    17    1
   17    17    18    1
   18    17    19    1
   19    17    20    1
@<TRIPOS>SUBSTRUCTURE
       1 MOL1            1 RESIDUE      1      MOL     
@<SCITEGIC>MOL_PROPERTY
VConf Rank
SciTegic.value.IntegerValue
469

@<SCITEGIC>MOL_PROPERTY
Conf_Id
SciTegic.value.IntegerValue
24

@<SCITEGIC>MOL_PROPERTY
Delta U+W
SciTegic.value.DoubleValue
0.847

@<SCITEGIC>MOL_PROPERTY
U+W
SciTegic.value.DoubleValue
-10.931

@<SCITEGIC>MOL_PROPERTY
Grad RMS
SciTegic.value.DoubleValue
0.000000

@<SCITEGIC>MOL_PROPERTY
U
SciTegic.value.DoubleValue
47.080

@<SCITEGIC>MOL_PROPERTY
W
SciTegic.value.DoubleValue
-58.011

@<SCITEGIC>MOL_PROPERTY
W(PB)
SciTegic.value.DoubleValue
-59.914

@<SCITEGIC>MOL_PROPERTY
W(SA)
SciTegic.value.DoubleValue
1.903

@<SCITEGIC>MOL_PROPERTY
Valence
SciTegic.value.DoubleValue
1.943

@<SCITEGIC>MOL_PROPERTY
Coulomb
SciTegic.value.DoubleValue
44.572

@<SCITEGIC>MOL_PROPERTY
VdW
SciTegic.value.DoubleValue
0.565

@<SCITEGIC>MOL_PROPERTY
VdW6
SciTegic.value.DoubleValue
-4.575

@<SCITEGIC>MOL_PROPERTY
VdW12
SciTegic.value.DoubleValue
5.140

@<SCITEGIC>MOL_PROPERTY
Bond
SciTegic.value.DoubleValue
0.158

@<SCITEGIC>MOL_PROPERTY
Angle
SciTegic.value.DoubleValue
0.700

@<SCITEGIC>MOL_PROPERTY
Pdih
SciTegic.value.DoubleValue
1.085

@<SCITEGIC>MOL_PROPERTY
Idih
SciTegic.value.DoubleValue
0.000

@<SCITEGIC>MOL_PROPERTY
Tether
SciTegic.value.DoubleValue
0.000

@<TRIPOS>MOLECULE
guest-s11_confgen4.mol2 : confsearch ligand conformer 470
          20          19           1
SMALL
USER_CHARGES
 
@<TRIPOS>ATOM
       1    N1      20.008576   16.569032   23.237754 N.4        1 MOL1        -0.5919
       2    H1      19.190765   15.951857   23.195675 H          1 MOL1         0.3682
       3    H2      20.627949   16.294751   22.468749 H          1 MOL1         0.3682
       4    H3      20.499010   16.352896   24.111292 H          1 MOL1         0.3682
       5    C1      19.616124   18.030381   23.155492 C.3        1 MOL1         0.0252
       6    H4      18.936114   18.244978   23.984294 H          1 MOL1         0.0971
       7    H5      19.074025   18.180228   22.218125 H          1 MOL1         0.0971
       8    C2      20.823087   18.985517   23.215334 C.3        1 MOL1        -0.1369
       9    H6      21.383775   18.797950   24.140649 H          1 MOL1         0.0997
      10    H7      21.510887   18.764912   22.389066 H          1 MOL1         0.0997
      11    C3      20.409096   20.477854   23.176114 C.3        1 MOL1        -0.1329
      12    H8      21.312947   21.099912   23.234099 H          1 MOL1         0.0997
      13    H9      19.824811   20.709564   24.077453 H          1 MOL1         0.0997
      14    C4      19.587360   20.892840   21.928812 C.3        1 MOL1        -0.1305
      15    H10     18.628741   20.356670   21.910137 H          1 MOL1         0.0997
      16    H11     19.334268   21.958860   22.014991 H          1 MOL1         0.0997
      17    C5      20.336218   20.665316   20.595976 C.3        1 MOL1        -0.2320
      18    H12     19.751966   21.059730   19.754554 H          1 MOL1         0.1008
      19    H13     21.308510   21.174848   20.597316 H          1 MOL1         0.1008
      20    H14     20.507051   19.598194   20.407029 H          1 MOL1         0.1008
@<TRIPOS>BOND
    1     1     2    1
    2     1     3    1
    3     1     4    1
    4     1     5    1
    5     5     6    1
    6     5     7    1
    7     5     8    1
    8     8     9    1
    9     8    10    1
   10     8    11    1
   11    11    12    1
   12    11    13    1
   13    11    14    1
   14    14    15    1
   15    14    16    1
   16    14    17    1
   17    17    18    1
   18    17    19    1
   19    17    20    1
@<TRIPOS>SUBSTRUCTURE
       1 MOL1            1 RESIDUE      1      MOL     
@<SCITEGIC>MOL_PROPERTY
VConf Rank
SciTegic.value.IntegerValue
470

@<SCITEGIC>MOL_PROPERTY
Conf_Id
SciTegic.value.IntegerValue
64

@<SCITEGIC>MOL_PROPERTY
Delta U+W
SciTegic.value.DoubleValue
0.707

@<SCITEGIC>MOL_PROPERTY
U+W
SciTegic.value.DoubleValue
-11.070

@<SCITEGIC>MOL_PROPERTY
Grad RMS
SciTegic.value.DoubleValue
0.000000

@<SCITEGIC>MOL_PROPERTY
U
SciTegic.value.DoubleValue
47.077

@<SCITEGIC>MOL_PROPERTY
W
SciTegic.value.DoubleValue
-58.148

@<SCITEGIC>MOL_PROPERTY
W(PB)
SciTegic.value.DoubleValue
-60.054

@<SCITEGIC>MOL_PROPERTY
W(SA)
SciTegic.value.DoubleValue
1.906

@<SCITEGIC>MOL_PROPERTY
Valence
SciTegic.value.DoubleValue
2.039

@<SCITEGIC>MOL_PROPERTY
Coulomb
SciTegic.value.DoubleValue
44.655

@<SCITEGIC>MOL_PROPERTY
VdW
SciTegic.value.DoubleValue
0.383

@<SCITEGIC>MOL_PROPERTY
VdW6
SciTegic.value.DoubleValue
-4.912

@<SCITEGIC>MOL_PROPERTY
VdW12
SciTegic.value.DoubleValue
5.295

@<SCITEGIC>MOL_PROPERTY
Bond
SciTegic.value.DoubleValue
0.159

@<SCITEGIC>MOL_PROPERTY
Angle
SciTegic.value.DoubleValue
0.856

@<SCITEGIC>MOL_PROPERTY
Pdih
SciTegic.value.DoubleValue
1.024

@<SCITEGIC>MOL_PROPERTY
Idih
SciTegic.value.DoubleValue
0.000

@<SCITEGIC>MOL_PROPERTY
Tether
SciTegic.value.DoubleValue
0.000

@<TRIPOS>MOLECULE
guest-s11_confgen4.mol2 : confsearch ligand conformer 471
          20          19           1
SMALL
USER_CHARGES
 
@<TRIPOS>ATOM
       1    N1      20.831351   17.000800   24.190687 N.4        1 MOL1        -0.5919
       2    H1      20.247599   16.166042   24.077900 H          1 MOL1         0.3682
       3    H2      21.709400   16.823871   23.692743 H          1 MOL1         0.3682
       4    H3      21.062997   17.068871   25.187278 H          1 MOL1         0.3682
       5    C1      20.136370   18.249824   23.687430 C.3        1 MOL1         0.0252
       6    H4      20.800909   19.099123   23.866492 H          1 MOL1         0.0971
       7    H5      19.228094   18.392950   24.278977 H          1 MOL1         0.0971
       8    C2      19.774681   18.180231   22.191783 C.3        1 MOL1        -0.1369
       9    H6      20.684730   18.027380   21.597726 H          1 MOL1         0.0997
      10    H7      19.141389   17.300539   22.016161 H          1 MOL1         0.0997
      11    C3      19.024664   19.442252   21.697038 C.3        1 MOL1        -0.1329
      12    H8      18.057879   19.508460   22.215147 H          1 MOL1         0.0997
      13    H9      18.788122   19.321004   20.630919 H          1 MOL1         0.0997
      14    C4      19.790383   20.775121   21.897929 C.3        1 MOL1        -0.1305
      15    H10     19.161720   21.598795   21.531558 H          1 MOL1         0.0997
      16    H11     19.943809   20.967142   22.968613 H          1 MOL1         0.0997
      17    C5      21.148749   20.820455   21.161862 C.3        1 MOL1        -0.2320
      18    H12     21.025081   20.610840   20.091467 H          1 MOL1         0.1008
      19    H13     21.605442   21.813926   21.258559 H          1 MOL1         0.1008
      20    H14     21.855846   20.091005   21.576051 H          1 MOL1         0.1008
@<TRIPOS>BOND
    1     1     2    1
    2     1     3    1
    3     1     4    1
    4     1     5    1
    5     5     6    1
    6     5     7    1
    7     5     8    1
    8     8     9    1
    9     8    10    1
   10     8    11    1
   11    11    12    1
   12    11    13    1
   13    11    14    1
   14    14    15    1
   15    14    16    1
   16    14    17    1
   17    17    18    1
   18    17    19    1
   19    17    20    1
@<TRIPOS>SUBSTRUCTURE
       1 MOL1            1 RESIDUE      1      MOL     
@<SCITEGIC>MOL_PROPERTY
VConf Rank
SciTegic.value.IntegerValue
471

@<SCITEGIC>MOL_PROPERTY
Conf_Id
SciTegic.value.IntegerValue
22

@<SCITEGIC>MOL_PROPERTY
Delta U+W
SciTegic.value.DoubleValue
0.731

@<SCITEGIC>MOL_PROPERTY
U+W
SciTegic.value.DoubleValue
-11.047

@<SCITEGIC>MOL_PROPERTY
Grad RMS
SciTegic.value.DoubleValue
0.000000

@<SCITEGIC>MOL_PROPERTY
U
SciTegic.value.DoubleValue
47.078

@<SCITEGIC>MOL_PROPERTY
W
SciTegic.value.DoubleValue
-58.125

@<SCITEGIC>MOL_PROPERTY
W(PB)
SciTegic.value.DoubleValue
-60.031

@<SCITEGIC>MOL_PROPERTY
W(SA)
SciTegic.value.DoubleValue
1.906

@<SCITEGIC>MOL_PROPERTY
Valence
SciTegic.value.DoubleValue
2.039

@<SCITEGIC>MOL_PROPERTY
Coulomb
SciTegic.value.DoubleValue
44.655

@<SCITEGIC>MOL_PROPERTY
VdW
SciTegic.value.DoubleValue
0.383

@<SCITEGIC>MOL_PROPERTY
VdW6
SciTegic.value.DoubleValue
-4.913

@<SCITEGIC>MOL_PROPERTY
VdW12
SciTegic.value.DoubleValue
5.296

@<SCITEGIC>MOL_PROPERTY
Bond
SciTegic.value.DoubleValue
0.159

@<SCITEGIC>MOL_PROPERTY
Angle
SciTegic.value.DoubleValue
0.856

@<SCITEGIC>MOL_PROPERTY
Pdih
SciTegic.value.DoubleValue
1.024

@<SCITEGIC>MOL_PROPERTY
Idih
SciTegic.value.DoubleValue
0.000

@<SCITEGIC>MOL_PROPERTY
Tether
SciTegic.value.DoubleValue
0.000

@<TRIPOS>MOLECULE
guest-s11_confgen4.mol2 : confsearch ligand conformer 472
          20          19           1
SMALL
USER_CHARGES
 
@<TRIPOS>ATOM
       1    N1      20.015476   16.539188   21.842539 N.4        1 MOL1        -0.5919
       2    H1      19.093715   16.283844   22.210629 H          1 MOL1         0.3682
       3    H2      19.991033   16.377401   20.830838 H          1 MOL1         0.3682
       4    H3      20.687591   15.870995   22.234040 H          1 MOL1         0.3682
       5    C1      20.382940   17.970501   22.178578 C.3        1 MOL1         0.0252
       6    H4      21.383074   18.165109   21.782022 H          1 MOL1         0.0971
       7    H5      20.417428   18.057140   23.266958 H          1 MOL1         0.0971
       8    C2      19.389400   18.998853   21.609333 C.3        1 MOL1        -0.1369
       9    H6      19.275175   18.820366   20.531827 H          1 MOL1         0.0997
      10    H7      18.399698   18.837440   22.056795 H          1 MOL1         0.0997
      11    C3      19.821125   20.472438   21.819270 C.3        1 MOL1        -0.1329
      12    H8      19.091475   21.107285   21.297608 H          1 MOL1         0.0997
      13    H9      20.784145   20.659307   21.324274 H          1 MOL1         0.0997
      14    C4      19.882348   20.930507   23.299681 C.3        1 MOL1        -0.1305
      15    H10     19.687121   22.011613   23.334316 H          1 MOL1         0.0997
      16    H11     19.075174   20.459830   23.878191 H          1 MOL1         0.0997
      17    C5      21.248455   20.675274   23.978978 C.3        1 MOL1        -0.2320
      18    H12     21.476347   19.607916   24.066642 H          1 MOL1         0.1008
      19    H13     22.062417   21.152563   23.418028 H          1 MOL1         0.1008
      20    H14     21.254471   21.095041   24.993248 H          1 MOL1         0.1008
@<TRIPOS>BOND
    1     1     2    1
    2     1     3    1
    3     1     4    1
    4     1     5    1
    5     5     6    1
    6     5     7    1
    7     5     8    1
    8     8     9    1
    9     8    10    1
   10     8    11    1
   11    11    12    1
   12    11    13    1
   13    11    14    1
   14    14    15    1
   15    14    16    1
   16    14    17    1
   17    17    18    1
   18    17    19    1
   19    17    20    1
@<TRIPOS>SUBSTRUCTURE
       1 MOL1            1 RESIDUE      1      MOL     
@<SCITEGIC>MOL_PROPERTY
VConf Rank
SciTegic.value.IntegerValue
472

@<SCITEGIC>MOL_PROPERTY
Conf_Id
SciTegic.value.IntegerValue
61

@<SCITEGIC>MOL_PROPERTY
Delta U+W
SciTegic.value.DoubleValue
2.669

@<SCITEGIC>MOL_PROPERTY
U+W
SciTegic.value.DoubleValue
-9.108

@<SCITEGIC>MOL_PROPERTY
Grad RMS
SciTegic.value.DoubleValue
0.000000

@<SCITEGIC>MOL_PROPERTY
U
SciTegic.value.DoubleValue
48.916

@<SCITEGIC>MOL_PROPERTY
W
SciTegic.value.DoubleValue
-58.025

@<SCITEGIC>MOL_PROPERTY
W(PB)
SciTegic.value.DoubleValue
-59.935

@<SCITEGIC>MOL_PROPERTY
W(SA)
SciTegic.value.DoubleValue
1.911

@<SCITEGIC>MOL_PROPERTY
Valence
SciTegic.value.DoubleValue
3.785

@<SCITEGIC>MOL_PROPERTY
Coulomb
SciTegic.value.DoubleValue
44.716

@<SCITEGIC>MOL_PROPERTY
VdW
SciTegic.value.DoubleValue
0.415

@<SCITEGIC>MOL_PROPERTY
VdW6
SciTegic.value.DoubleValue
-4.836

@<SCITEGIC>MOL_PROPERTY
VdW12
SciTegic.value.DoubleValue
5.251

@<SCITEGIC>MOL_PROPERTY
Bond
SciTegic.value.DoubleValue
0.175

@<SCITEGIC>MOL_PROPERTY
Angle
SciTegic.value.DoubleValue
1.195

@<SCITEGIC>MOL_PROPERTY
Pdih
SciTegic.value.DoubleValue
2.415

@<SCITEGIC>MOL_PROPERTY
Idih
SciTegic.value.DoubleValue
0.000

@<SCITEGIC>MOL_PROPERTY
Tether
SciTegic.value.DoubleValue
0.000

@<TRIPOS>MOLECULE
guest-s11_confgen4.mol2 : confsearch ligand conformer 473
          20          19           1
SMALL
USER_CHARGES
 
@<TRIPOS>ATOM
       1    N1      20.601142   18.306809   20.303534 N.4        1 MOL1        -0.5919
       2    H1      20.338895   18.376880   19.314617 H          1 MOL1         0.3682
       3    H2      21.308051   17.567885   20.371157 H          1 MOL1         0.3682
       4    H3      19.774528   17.981417   20.811329 H          1 MOL1         0.3682
       5    C1      21.114849   19.627885   20.843382 C.3        1 MOL1         0.0252
       6    H4      20.344543   20.389111   20.693384 H          1 MOL1         0.0971
       7    H5      21.983317   19.902411   20.238436 H          1 MOL1         0.0971
       8    C2      21.531357   19.589511   22.328820 C.3        1 MOL1        -0.1369
       9    H6      22.089697   18.667756   22.539625 H          1 MOL1         0.0997
      10    H7      22.236750   20.413760   22.498830 H          1 MOL1         0.0997
      11    C3      20.360046   19.753211   23.331318 C.3        1 MOL1        -0.1329
      12    H8      19.848489   20.707505   23.143970 H          1 MOL1         0.0997
      13    H9      20.783693   19.827453   24.342502 H          1 MOL1         0.0997
      14    C4      19.328213   18.601265   23.305810 C.3        1 MOL1        -0.1305
      15    H10     18.784377   18.604514   22.352876 H          1 MOL1         0.0997
      16    H11     19.845093   17.634564   23.384973 H          1 MOL1         0.0997
      17    C5      18.305801   18.728450   24.455383 C.3        1 MOL1        -0.2320
      18    H12     17.575605   17.909658   24.417399 H          1 MOL1         0.1008
      19    H13     18.803084   18.689839   25.433361 H          1 MOL1         0.1008
      20    H14     17.753768   19.675146   24.389847 H          1 MOL1         0.1008
@<TRIPOS>BOND
    1     1     2    1
    2     1     3    1
    3     1     4    1
    4     1     5    1
    5     5     6    1
    6     5     7    1
    7     5     8    1
    8     8     9    1
    9     8    10    1
   10     8    11    1
   11    11    12    1
   12    11    13    1
   13    11    14    1
   14    14    15    1
   15    14    16    1
   16    14    17    1
   17    17    18    1
   18    17    19    1
   19    17    20    1
@<TRIPOS>SUBSTRUCTURE
       1 MOL1            1 RESIDUE      1      MOL     
@<SCITEGIC>MOL_PROPERTY
VConf Rank
SciTegic.value.IntegerValue
473

@<SCITEGIC>MOL_PROPERTY
Conf_Id
SciTegic.value.IntegerValue
69

@<SCITEGIC>MOL_PROPERTY
Delta U+W
SciTegic.value.DoubleValue
2.811

@<SCITEGIC>MOL_PROPERTY
U+W
SciTegic.value.DoubleValue
-8.967

@<SCITEGIC>MOL_PROPERTY
Grad RMS
SciTegic.value.DoubleValue
0.000000

@<SCITEGIC>MOL_PROPERTY
U
SciTegic.value.DoubleValue
49.216

@<SCITEGIC>MOL_PROPERTY
W
SciTegic.value.DoubleValue
-58.183

@<SCITEGIC>MOL_PROPERTY
W(PB)
SciTegic.value.DoubleValue
-60.064

@<SCITEGIC>MOL_PROPERTY
W(SA)
SciTegic.value.DoubleValue
1.881

@<SCITEGIC>MOL_PROPERTY
Valence
SciTegic.value.DoubleValue
2.929

@<SCITEGIC>MOL_PROPERTY
Coulomb
SciTegic.value.DoubleValue
46.006

@<SCITEGIC>MOL_PROPERTY
VdW
SciTegic.value.DoubleValue
0.281

@<SCITEGIC>MOL_PROPERTY
VdW6
SciTegic.value.DoubleValue
-4.909

@<SCITEGIC>MOL_PROPERTY
VdW12
SciTegic.value.DoubleValue
5.190

@<SCITEGIC>MOL_PROPERTY
Bond
SciTegic.value.DoubleValue
0.156

@<SCITEGIC>MOL_PROPERTY
Angle
SciTegic.value.DoubleValue
0.974

@<SCITEGIC>MOL_PROPERTY
Pdih
SciTegic.value.DoubleValue
1.799

@<SCITEGIC>MOL_PROPERTY
Idih
SciTegic.value.DoubleValue
0.000

@<SCITEGIC>MOL_PROPERTY
Tether
SciTegic.value.DoubleValue
0.000

@<TRIPOS>MOLECULE
guest-s11_confgen4.mol2 : confsearch ligand conformer 474
          20          19           1
SMALL
USER_CHARGES
 
@<TRIPOS>ATOM
       1    N1      20.567717   17.703911   24.123381 N.4        1 MOL1        -0.5919
       2    H1      20.396830   18.695665   24.308449 H          1 MOL1         0.3682
       3    H2      19.709741   17.198651   24.366060 H          1 MOL1         0.3682
       4    H3      21.290420   17.394777   24.782000 H          1 MOL1         0.3682
       5    C1      20.977359   17.457925   22.683849 C.3        1 MOL1         0.0252
       6    H4      21.149985   16.383070   22.581656 H          1 MOL1         0.0971
       7    H5      21.924660   17.971263   22.498253 H          1 MOL1         0.0971
       8    C2      19.929529   17.898182   21.639959 C.3        1 MOL1        -0.1369
       9    H6      20.118039   17.331270   20.718577 H          1 MOL1         0.0997
      10    H7      18.923461   17.608084   21.970845 H          1 MOL1         0.0997
      11    C3      19.967653   19.406881   21.284787 C.3        1 MOL1        -0.1329
      12    H8      19.266219   19.580788   20.457003 H          1 MOL1         0.0997
      13    H9      20.963637   19.667494   20.900650 H          1 MOL1         0.0997
      14    C4      19.602945   20.350664   22.454647 C.3        1 MOL1        -0.1305
      15    H10     18.657494   20.029081   22.913614 H          1 MOL1         0.0997
      16    H11     20.376520   20.303272   23.231299 H          1 MOL1         0.0997
      17    C5      19.468994   21.814550   21.983362 C.3        1 MOL1        -0.2320
      18    H12     18.675807   21.917192   21.231337 H          1 MOL1         0.1008
      19    H13     19.219694   22.472130   22.826268 H          1 MOL1         0.1008
      20    H14     20.407370   22.174534   21.541623 H          1 MOL1         0.1008
@<TRIPOS>BOND
    1     1     2    1
    2     1     3    1
    3     1     4    1
    4     1     5    1
    5     5     6    1
    6     5     7    1
    7     5     8    1
    8     8     9    1
    9     8    10    1
   10     8    11    1
   11    11    12    1
   12    11    13    1
   13    11    14    1
   14    14    15    1
   15    14    16    1
   16    14    17    1
   17    17    18    1
   18    17    19    1
   19    17    20    1
@<TRIPOS>SUBSTRUCTURE
       1 MOL1            1 RESIDUE      1      MOL     
@<SCITEGIC>MOL_PROPERTY
VConf Rank
SciTegic.value.IntegerValue
474

@<SCITEGIC>MOL_PROPERTY
Conf_Id
SciTegic.value.IntegerValue
26

@<SCITEGIC>MOL_PROPERTY
Delta U+W
SciTegic.value.DoubleValue
2.809

@<SCITEGIC>MOL_PROPERTY
U+W
SciTegic.value.DoubleValue
-8.969

@<SCITEGIC>MOL_PROPERTY
Grad RMS
SciTegic.value.DoubleValue
0.000000

@<SCITEGIC>MOL_PROPERTY
U
SciTegic.value.DoubleValue
49.216

@<SCITEGIC>MOL_PROPERTY
W
SciTegic.value.DoubleValue
-58.185

@<SCITEGIC>MOL_PROPERTY
W(PB)
SciTegic.value.DoubleValue
-60.088

@<SCITEGIC>MOL_PROPERTY
W(SA)
SciTegic.value.DoubleValue
1.903

@<SCITEGIC>MOL_PROPERTY
Valence
SciTegic.value.DoubleValue
2.929

@<SCITEGIC>MOL_PROPERTY
Coulomb
SciTegic.value.DoubleValue
46.006

@<SCITEGIC>MOL_PROPERTY
VdW
SciTegic.value.DoubleValue
0.281

@<SCITEGIC>MOL_PROPERTY
VdW6
SciTegic.value.DoubleValue
-4.909

@<SCITEGIC>MOL_PROPERTY
VdW12
SciTegic.value.DoubleValue
5.190

@<SCITEGIC>MOL_PROPERTY
Bond
SciTegic.value.DoubleValue
0.156

@<SCITEGIC>MOL_PROPERTY
Angle
SciTegic.value.DoubleValue
0.974

@<SCITEGIC>MOL_PROPERTY
Pdih
SciTegic.value.DoubleValue
1.799

@<SCITEGIC>MOL_PROPERTY
Idih
SciTegic.value.DoubleValue
0.000

@<SCITEGIC>MOL_PROPERTY
Tether
SciTegic.value.DoubleValue
0.000

@<TRIPOS>MOLECULE
guest-s11_confgen4.mol2 : confsearch ligand conformer 475
          20          19           1
SMALL
USER_CHARGES
 
@<TRIPOS>ATOM
       1    N1      20.940967   18.334848   20.343247 N.4        1 MOL1        -0.5919
       2    H1      20.480831   17.553855   20.819970 H          1 MOL1         0.3682
       3    H2      20.384872   18.551003   19.510137 H          1 MOL1         0.3682
       4    H3      21.850121   17.993026   20.014758 H          1 MOL1         0.3682
       5    C1      21.086455   19.539706   21.252175 C.3        1 MOL1         0.0252
       6    H4      21.610149   20.318632   20.691348 H          1 MOL1         0.0971
       7    H5      21.714066   19.252290   22.099777 H          1 MOL1         0.0971
       8    C2      19.742220   20.094657   21.765353 C.3        1 MOL1        -0.1369
       9    H6      19.934509   21.004405   22.348375 H          1 MOL1         0.0997
      10    H7      19.133671   20.411587   20.908113 H          1 MOL1         0.0997
      11    C3      18.930816   19.088253   22.623124 C.3        1 MOL1        -0.1329
      12    H8      18.600804   18.254044   21.989566 H          1 MOL1         0.0997
      13    H9      18.011156   19.579813   22.969237 H          1 MOL1         0.0997
      14    C4      19.689969   18.518204   23.848588 C.3        1 MOL1        -0.1305
      15    H10     19.033604   17.805383   24.367164 H          1 MOL1         0.0997
      16    H11     20.563353   17.939123   23.519402 H          1 MOL1         0.0997
      17    C5      20.136433   19.604857   24.852928 C.3        1 MOL1        -0.2320
      18    H12     19.282894   20.209697   25.185497 H          1 MOL1         0.1008
      19    H13     20.588177   19.145028   25.741392 H          1 MOL1         0.1008
      20    H14     20.883804   20.276984   24.413288 H          1 MOL1         0.1008
@<TRIPOS>BOND
    1     1     2    1
    2     1     3    1
    3     1     4    1
    4     1     5    1
    5     5     6    1
    6     5     7    1
    7     5     8    1
    8     8     9    1
    9     8    10    1
   10     8    11    1
   11    11    12    1
   12    11    13    1
   13    11    14    1
   14    14    15    1
   15    14    16    1
   16    14    17    1
   17    17    18    1
   18    17    19    1
   19    17    20    1
@<TRIPOS>SUBSTRUCTURE
       1 MOL1            1 RESIDUE      1      MOL     
@<SCITEGIC>MOL_PROPERTY
VConf Rank
SciTegic.value.IntegerValue
475

@<SCITEGIC>MOL_PROPERTY
Conf_Id
SciTegic.value.IntegerValue
2

@<SCITEGIC>MOL_PROPERTY
Delta U+W
SciTegic.value.DoubleValue
0.994

@<SCITEGIC>MOL_PROPERTY
U+W
SciTegic.value.DoubleValue
-10.784

@<SCITEGIC>MOL_PROPERTY
Grad RMS
SciTegic.value.DoubleValue
0.000000

@<SCITEGIC>MOL_PROPERTY
U
SciTegic.value.DoubleValue
47.562

@<SCITEGIC>MOL_PROPERTY
W
SciTegic.value.DoubleValue
-58.346

@<SCITEGIC>MOL_PROPERTY
W(PB)
SciTegic.value.DoubleValue
-60.221

@<SCITEGIC>MOL_PROPERTY
W(SA)
SciTegic.value.DoubleValue
1.875

@<SCITEGIC>MOL_PROPERTY
Valence
SciTegic.value.DoubleValue
2.149

@<SCITEGIC>MOL_PROPERTY
Coulomb
SciTegic.value.DoubleValue
45.034

@<SCITEGIC>MOL_PROPERTY
VdW
SciTegic.value.DoubleValue
0.378

@<SCITEGIC>MOL_PROPERTY
VdW6
SciTegic.value.DoubleValue
-5.599

@<SCITEGIC>MOL_PROPERTY
VdW12
SciTegic.value.DoubleValue
5.977

@<SCITEGIC>MOL_PROPERTY
Bond
SciTegic.value.DoubleValue
0.185

@<SCITEGIC>MOL_PROPERTY
Angle
SciTegic.value.DoubleValue
0.935

@<SCITEGIC>MOL_PROPERTY
Pdih
SciTegic.value.DoubleValue
1.028

@<SCITEGIC>MOL_PROPERTY
Idih
SciTegic.value.DoubleValue
0.000

@<SCITEGIC>MOL_PROPERTY
Tether
SciTegic.value.DoubleValue
0.000

@<TRIPOS>MOLECULE
guest-s11_confgen4.mol2 : confsearch ligand conformer 476
          20          19           1
SMALL
USER_CHARGES
 
@<TRIPOS>ATOM
       1    N1      21.228259   17.031994   23.195044 N.4        1 MOL1        -0.5919
       2    H1      22.107868   17.117061   23.713783 H          1 MOL1         0.3682
       3    H2      20.468677   17.230863   23.852636 H          1 MOL1         0.3682
       4    H3      21.137993   16.048399   22.919902 H          1 MOL1         0.3682
       5    C1      21.189135   17.958859   21.995716 C.3        1 MOL1         0.0252
       6    H4      20.244458   17.795491   21.470522 H          1 MOL1         0.0971
       7    H5      22.003732   17.670938   21.325612 H          1 MOL1         0.0971
       8    C2      21.329726   19.450624   22.360621 C.3        1 MOL1        -0.1369
       9    H6      22.296187   19.609512   22.856953 H          1 MOL1         0.0997
      10    H7      21.368439   20.039109   21.435029 H          1 MOL1         0.0997
      11    C3      20.193901   19.986723   23.271385 C.3        1 MOL1        -0.1329
      12    H8      20.359453   21.058245   23.449242 H          1 MOL1         0.0997
      13    H9      20.262470   19.508329   24.257613 H          1 MOL1         0.0997
      14    C4      18.762083   19.783349   22.713198 C.3        1 MOL1        -0.1305
      15    H10     18.539437   18.711949   22.618178 H          1 MOL1         0.0997
      16    H11     18.041701   20.177371   23.443708 H          1 MOL1         0.0997
      17    C5      18.528020   20.484325   21.355743 C.3        1 MOL1        -0.2320
      18    H12     19.146876   20.044928   20.563563 H          1 MOL1         0.1008
      19    H13     17.479009   20.385806   21.047918 H          1 MOL1         0.1008
      20    H14     18.759788   21.555398   21.419361 H          1 MOL1         0.1008
@<TRIPOS>BOND
    1     1     2    1
    2     1     3    1
    3     1     4    1
    4     1     5    1
    5     5     6    1
    6     5     7    1
    7     5     8    1
    8     8     9    1
    9     8    10    1
   10     8    11    1
   11    11    12    1
   12    11    13    1
   13    11    14    1
   14    14    15    1
   15    14    16    1
   16    14    17    1
   17    17    18    1
   18    17    19    1
   19    17    20    1
@<TRIPOS>SUBSTRUCTURE
       1 MOL1            1 RESIDUE      1      MOL     
@<SCITEGIC>MOL_PROPERTY
VConf Rank
SciTegic.value.IntegerValue
476

@<SCITEGIC>MOL_PROPERTY
Conf_Id
SciTegic.value.IntegerValue
1

@<SCITEGIC>MOL_PROPERTY
Delta U+W
SciTegic.value.DoubleValue
1.032

@<SCITEGIC>MOL_PROPERTY
U+W
SciTegic.value.DoubleValue
-10.746

@<SCITEGIC>MOL_PROPERTY
Grad RMS
SciTegic.value.DoubleValue
0.000000

@<SCITEGIC>MOL_PROPERTY
U
SciTegic.value.DoubleValue
47.562

@<SCITEGIC>MOL_PROPERTY
W
SciTegic.value.DoubleValue
-58.308

@<SCITEGIC>MOL_PROPERTY
W(PB)
SciTegic.value.DoubleValue
-60.184

@<SCITEGIC>MOL_PROPERTY
W(SA)
SciTegic.value.DoubleValue
1.877

@<SCITEGIC>MOL_PROPERTY
Valence
SciTegic.value.DoubleValue
2.149

@<SCITEGIC>MOL_PROPERTY
Coulomb
SciTegic.value.DoubleValue
45.035

@<SCITEGIC>MOL_PROPERTY
VdW
SciTegic.value.DoubleValue
0.378

@<SCITEGIC>MOL_PROPERTY
VdW6
SciTegic.value.DoubleValue
-5.599

@<SCITEGIC>MOL_PROPERTY
VdW12
SciTegic.value.DoubleValue
5.978

@<SCITEGIC>MOL_PROPERTY
Bond
SciTegic.value.DoubleValue
0.185

@<SCITEGIC>MOL_PROPERTY
Angle
SciTegic.value.DoubleValue
0.935

@<SCITEGIC>MOL_PROPERTY
Pdih
SciTegic.value.DoubleValue
1.028

@<SCITEGIC>MOL_PROPERTY
Idih
SciTegic.value.DoubleValue
0.000

@<SCITEGIC>MOL_PROPERTY
Tether
SciTegic.value.DoubleValue
0.000

@<TRIPOS>MOLECULE
guest-s11_confgen4.mol2 : confsearch ligand conformer 477
          20          19           1
SMALL
USER_CHARGES
 
@<TRIPOS>ATOM
       1    N1      18.198510   20.221385   22.204347 N.4        1 MOL1        -0.5919
       2    H1      17.906835   20.485508   21.258168 H          1 MOL1         0.3682
       3    H2      18.006517   19.221304   22.312336 H          1 MOL1         0.3682
       4    H3      17.580842   20.716803   22.855801 H          1 MOL1         0.3682
       5    C1      19.658449   20.545387   22.456055 C.3        1 MOL1         0.0252
       6    H4      19.891562   20.268703   23.485436 H          1 MOL1         0.0971
       7    H5      19.774823   21.628733   22.364713 H          1 MOL1         0.0971
       8    C2      20.629310   19.848299   21.479219 C.3        1 MOL1        -0.1369
       9    H6      20.355343   20.144225   20.457852 H          1 MOL1         0.0997
      10    H7      21.645339   20.232029   21.640634 H          1 MOL1         0.0997
      11    C3      20.638161   18.298309   21.567399 C.3        1 MOL1        -0.1329
      12    H8      21.003467   17.908840   20.607040 H          1 MOL1         0.0997
      13    H9      19.616590   17.910284   21.670121 H          1 MOL1         0.0997
      14    C4      21.542947   17.709025   22.680117 C.3        1 MOL1        -0.1305
      15    H10     21.539071   16.614244   22.583228 H          1 MOL1         0.0997
      16    H11     22.583352   18.023289   22.517090 H          1 MOL1         0.0997
      17    C5      21.115111   18.075402   24.118399 C.3        1 MOL1        -0.2320
      18    H12     20.047183   17.879423   24.279276 H          1 MOL1         0.1008
      19    H13     21.678660   17.479379   24.847849 H          1 MOL1         0.1008
      20    H14     21.317216   19.130192   24.338911 H          1 MOL1         0.1008
@<TRIPOS>BOND
    1     1     2    1
    2     1     3    1
    3     1     4    1
    4     1     5    1
    5     5     6    1
    6     5     7    1
    7     5     8    1
    8     8     9    1
    9     8    10    1
   10     8    11    1
   11    11    12    1
   12    11    13    1
   13    11    14    1
   14    14    15    1
   15    14    16    1
   16    14    17    1
   17    17    18    1
   18    17    19    1
   19    17    20    1
@<TRIPOS>SUBSTRUCTURE
       1 MOL1            1 RESIDUE      1      MOL     
@<SCITEGIC>MOL_PROPERTY
VConf Rank
SciTegic.value.IntegerValue
477

@<SCITEGIC>MOL_PROPERTY
Conf_Id
SciTegic.value.IntegerValue
80

@<SCITEGIC>MOL_PROPERTY
Delta U+W
SciTegic.value.DoubleValue
2.920

@<SCITEGIC>MOL_PROPERTY
U+W
SciTegic.value.DoubleValue
-8.857

@<SCITEGIC>MOL_PROPERTY
Grad RMS
SciTegic.value.DoubleValue
0.000000

@<SCITEGIC>MOL_PROPERTY
U
SciTegic.value.DoubleValue
49.434

@<SCITEGIC>MOL_PROPERTY
W
SciTegic.value.DoubleValue
-58.292

@<SCITEGIC>MOL_PROPERTY
W(PB)
SciTegic.value.DoubleValue
-60.170

@<SCITEGIC>MOL_PROPERTY
W(SA)
SciTegic.value.DoubleValue
1.879

@<SCITEGIC>MOL_PROPERTY
Valence
SciTegic.value.DoubleValue
3.798

@<SCITEGIC>MOL_PROPERTY
Coulomb
SciTegic.value.DoubleValue
45.253

@<SCITEGIC>MOL_PROPERTY
VdW
SciTegic.value.DoubleValue
0.384

@<SCITEGIC>MOL_PROPERTY
VdW6
SciTegic.value.DoubleValue
-5.595

@<SCITEGIC>MOL_PROPERTY
VdW12
SciTegic.value.DoubleValue
5.979

@<SCITEGIC>MOL_PROPERTY
Bond
SciTegic.value.DoubleValue
0.198

@<SCITEGIC>MOL_PROPERTY
Angle
SciTegic.value.DoubleValue
1.368

@<SCITEGIC>MOL_PROPERTY
Pdih
SciTegic.value.DoubleValue
2.231

@<SCITEGIC>MOL_PROPERTY
Idih
SciTegic.value.DoubleValue
0.000

@<SCITEGIC>MOL_PROPERTY
Tether
SciTegic.value.DoubleValue
0.000

@<TRIPOS>MOLECULE
guest-s11_confgen4.mol2 : confsearch ligand conformer 478
          20          19           1
SMALL
USER_CHARGES
 
@<TRIPOS>ATOM
       1    N1      21.523608   17.281500   22.382844 N.4        1 MOL1        -0.5919
       2    H1      21.684569   16.841137   21.471657 H          1 MOL1         0.3682
       3    H2      22.190701   16.861749   23.038696 H          1 MOL1         0.3682
       4    H3      20.587004   17.005375   22.691415 H          1 MOL1         0.3682
       5    C1      21.673155   18.789098   22.315450 C.3        1 MOL1         0.0252
       6    H4      22.704356   19.003968   22.022228 H          1 MOL1         0.0971
       7    H5      21.520210   19.187304   23.319719 H          1 MOL1         0.0971
       8    C2      20.711531   19.467114   21.316301 C.3        1 MOL1        -0.1369
       9    H6      20.968435   20.531094   21.229321 H          1 MOL1         0.0997
      10    H7      20.890388   19.032940   20.323667 H          1 MOL1         0.0997
      11    C3      19.205328   19.322009   21.663611 C.3        1 MOL1        -0.1329
      12    H8      18.983564   18.303756   22.008143 H          1 MOL1         0.0997
      13    H9      18.632294   19.447379   20.734451 H          1 MOL1         0.0997
      14    C4      18.664126   20.356147   22.684249 C.3        1 MOL1        -0.1305
      15    H10     18.802210   21.372837   22.290475 H          1 MOL1         0.0997
      16    H11     17.578412   20.212669   22.776923 H          1 MOL1         0.0997
      17    C5      19.293135   20.260672   24.091785 C.3        1 MOL1        -0.2320
      18    H12     20.329926   20.617208   24.091093 H          1 MOL1         0.1008
      19    H13     18.737025   20.886524   24.801700 H          1 MOL1         0.1008
      20    H14     19.274552   19.229768   24.468152 H          1 MOL1         0.1008
@<TRIPOS>BOND
    1     1     2    1
    2     1     3    1
    3     1     4    1
    4     1     5    1
    5     5     6    1
    6     5     7    1
    7     5     8    1
    8     8     9    1
    9     8    10    1
   10     8    11    1
   11    11    12    1
   12    11    13    1
   13    11    14    1
   14    14    15    1
   15    14    16    1
   16    14    17    1
   17    17    18    1
   18    17    19    1
   19    17    20    1
@<TRIPOS>SUBSTRUCTURE
       1 MOL1            1 RESIDUE      1      MOL     
@<SCITEGIC>MOL_PROPERTY
VConf Rank
SciTegic.value.IntegerValue
478

@<SCITEGIC>MOL_PROPERTY
Conf_Id
SciTegic.value.IntegerValue
65

@<SCITEGIC>MOL_PROPERTY
Delta U+W
SciTegic.value.DoubleValue
2.949

@<SCITEGIC>MOL_PROPERTY
U+W
SciTegic.value.DoubleValue
-8.829

@<SCITEGIC>MOL_PROPERTY
Grad RMS
SciTegic.value.DoubleValue
0.000000

@<SCITEGIC>MOL_PROPERTY
U
SciTegic.value.DoubleValue
49.435

@<SCITEGIC>MOL_PROPERTY
W
SciTegic.value.DoubleValue
-58.263

@<SCITEGIC>MOL_PROPERTY
W(PB)
SciTegic.value.DoubleValue
-60.125

@<SCITEGIC>MOL_PROPERTY
W(SA)
SciTegic.value.DoubleValue
1.862

@<SCITEGIC>MOL_PROPERTY
Valence
SciTegic.value.DoubleValue
3.797

@<SCITEGIC>MOL_PROPERTY
Coulomb
SciTegic.value.DoubleValue
45.253

@<SCITEGIC>MOL_PROPERTY
VdW
SciTegic.value.DoubleValue
0.384

@<SCITEGIC>MOL_PROPERTY
VdW6
SciTegic.value.DoubleValue
-5.596

@<SCITEGIC>MOL_PROPERTY
VdW12
SciTegic.value.DoubleValue
5.980

@<SCITEGIC>MOL_PROPERTY
Bond
SciTegic.value.DoubleValue
0.198

@<SCITEGIC>MOL_PROPERTY
Angle
SciTegic.value.DoubleValue
1.369

@<SCITEGIC>MOL_PROPERTY
Pdih
SciTegic.value.DoubleValue
2.230

@<SCITEGIC>MOL_PROPERTY
Idih
SciTegic.value.DoubleValue
0.000

@<SCITEGIC>MOL_PROPERTY
Tether
SciTegic.value.DoubleValue
0.000

@<TRIPOS>MOLECULE
guest-s11_confgen4.mol2 : confsearch ligand conformer 479
          20          19           1
SMALL
USER_CHARGES
 
@<TRIPOS>ATOM
       1    N1      20.227658   18.364654   24.223767 N.4        1 MOL1        -0.5919
       2    H1      19.629560   18.233991   25.046499 H          1 MOL1         0.3682
       3    H2      19.758226   17.917792   23.430247 H          1 MOL1         0.3682
       4    H3      21.093036   17.844172   24.398766 H          1 MOL1         0.3682
       5    C1      20.498852   19.831545   23.951297 C.3        1 MOL1         0.0252
       6    H4      20.999170   20.233664   24.836454 H          1 MOL1         0.0971
       7    H5      19.542958   20.349695   23.837330 H          1 MOL1         0.0971
       8    C2      21.383489   20.085936   22.713916 C.3        1 MOL1        -0.1369
       9    H6      21.853712   21.070615   22.836833 H          1 MOL1         0.0997
      10    H7      22.208875   19.362018   22.691800 H          1 MOL1         0.0997
      11    C3      20.634517   20.085629   21.354173 C.3        1 MOL1        -0.1329
      12    H8      21.369138   20.331622   20.574849 H          1 MOL1         0.0997
      13    H9      19.899046   20.901740   21.331587 H          1 MOL1         0.0997
      14    C4      19.955532   18.746918   20.967712 C.3        1 MOL1        -0.1305
      15    H10     20.036064   18.615114   19.879410 H          1 MOL1         0.0997
      16    H11     20.497916   17.899575   21.408271 H          1 MOL1         0.0997
      17    C5      18.454561   18.697204   21.339776 C.3        1 MOL1        -0.2320
      18    H12     18.279324   18.891544   22.403317 H          1 MOL1         0.1008
      19    H13     17.891007   19.448592   20.771318 H          1 MOL1         0.1008
      20    H14     18.028784   17.714198   21.099785 H          1 MOL1         0.1008
@<TRIPOS>BOND
    1     1     2    1
    2     1     3    1
    3     1     4    1
    4     1     5    1
    5     5     6    1
    6     5     7    1
    7     5     8    1
    8     8     9    1
    9     8    10    1
   10     8    11    1
   11    11    12    1
   12    11    13    1
   13    11    14    1
   14    14    15    1
   15    14    16    1
   16    14    17    1
   17    17    18    1
   18    17    19    1
   19    17    20    1
@<TRIPOS>SUBSTRUCTURE
       1 MOL1            1 RESIDUE      1      MOL     
@<SCITEGIC>MOL_PROPERTY
VConf Rank
SciTegic.value.IntegerValue
479

@<SCITEGIC>MOL_PROPERTY
Conf_Id
SciTegic.value.IntegerValue
77

@<SCITEGIC>MOL_PROPERTY
Delta U+W
SciTegic.value.DoubleValue
5.366

@<SCITEGIC>MOL_PROPERTY
U+W
SciTegic.value.DoubleValue
-6.412

@<SCITEGIC>MOL_PROPERTY
Grad RMS
SciTegic.value.DoubleValue
0.000000

@<SCITEGIC>MOL_PROPERTY
U
SciTegic.value.DoubleValue
51.542

@<SCITEGIC>MOL_PROPERTY
W
SciTegic.value.DoubleValue
-57.954

@<SCITEGIC>MOL_PROPERTY
W(PB)
SciTegic.value.DoubleValue
-59.811

@<SCITEGIC>MOL_PROPERTY
W(SA)
SciTegic.value.DoubleValue
1.857

@<SCITEGIC>MOL_PROPERTY
Valence
SciTegic.value.DoubleValue
5.347

@<SCITEGIC>MOL_PROPERTY
Coulomb
SciTegic.value.DoubleValue
45.870

@<SCITEGIC>MOL_PROPERTY
VdW
SciTegic.value.DoubleValue
0.325

@<SCITEGIC>MOL_PROPERTY
VdW6
SciTegic.value.DoubleValue
-6.161

@<SCITEGIC>MOL_PROPERTY
VdW12
SciTegic.value.DoubleValue
6.486

@<SCITEGIC>MOL_PROPERTY
Bond
SciTegic.value.DoubleValue
0.201

@<SCITEGIC>MOL_PROPERTY
Angle
SciTegic.value.DoubleValue
1.484

@<SCITEGIC>MOL_PROPERTY
Pdih
SciTegic.value.DoubleValue
3.662

@<SCITEGIC>MOL_PROPERTY
Idih
SciTegic.value.DoubleValue
0.000

@<SCITEGIC>MOL_PROPERTY
Tether
SciTegic.value.DoubleValue
0.000

@<TRIPOS>MOLECULE
guest-s11_confgen4.mol2 : confsearch ligand conformer 480
          20          19           1
SMALL
USER_CHARGES
 
@<TRIPOS>ATOM
       1    N1      20.263071   18.232579   24.258306 N.4        1 MOL1        -0.5919
       2    H1      20.594022   18.856154   25.001294 H          1 MOL1         0.3682
       3    H2      19.406642   18.643454   23.874331 H          1 MOL1         0.3682
       4    H3      20.003884   17.346963   24.705731 H          1 MOL1         0.3682
       5    C1      21.312257   18.034227   23.181539 C.3        1 MOL1         0.0252
       6    H4      20.934192   17.313065   22.452023 H          1 MOL1         0.0971
       7    H5      22.189410   17.597618   23.666816 H          1 MOL1         0.0971
       8    C2      21.728583   19.334936   22.465131 C.3        1 MOL1        -0.1369
       9    H6      21.841724   20.143801   23.199123 H          1 MOL1         0.0997
      10    H7      22.728469   19.176143   22.039898 H          1 MOL1         0.0997
      11    C3      20.790392   19.784788   21.313048 C.3        1 MOL1        -0.1329
      12    H8      20.786488   19.028148   20.516213 H          1 MOL1         0.0997
      13    H9      21.232923   20.683547   20.861468 H          1 MOL1         0.0997
      14    C4      19.336989   20.124263   21.731253 C.3        1 MOL1        -0.1305
      15    H10     19.310041   20.487620   22.767355 H          1 MOL1         0.0997
      16    H11     18.982404   20.962706   21.115183 H          1 MOL1         0.0997
      17    C5      18.356163   18.944276   21.532678 C.3        1 MOL1        -0.2320
      18    H12     17.353526   19.209809   21.892390 H          1 MOL1         0.1008
      19    H13     18.268326   18.690472   20.468163 H          1 MOL1         0.1008
      20    H14     18.676368   18.039301   22.060015 H          1 MOL1         0.1008
@<TRIPOS>BOND
    1     1     2    1
    2     1     3    1
    3     1     4    1
    4     1     5    1
    5     5     6    1
    6     5     7    1
    7     5     8    1
    8     8     9    1
    9     8    10    1
   10     8    11    1
   11    11    12    1
   12    11    13    1
   13    11    14    1
   14    14    15    1
   15    14    16    1
   16    14    17    1
   17    17    18    1
   18    17    19    1
   19    17    20    1
@<TRIPOS>SUBSTRUCTURE
       1 MOL1            1 RESIDUE      1      MOL     
@<SCITEGIC>MOL_PROPERTY
VConf Rank
SciTegic.value.IntegerValue
480

@<SCITEGIC>MOL_PROPERTY
Conf_Id
SciTegic.value.IntegerValue
67

@<SCITEGIC>MOL_PROPERTY
Delta U+W
SciTegic.value.DoubleValue
5.353

@<SCITEGIC>MOL_PROPERTY
U+W
SciTegic.value.DoubleValue
-6.425

@<SCITEGIC>MOL_PROPERTY
Grad RMS
SciTegic.value.DoubleValue
0.000000

@<SCITEGIC>MOL_PROPERTY
U
SciTegic.value.DoubleValue
51.541

@<SCITEGIC>MOL_PROPERTY
W
SciTegic.value.DoubleValue
-57.966

@<SCITEGIC>MOL_PROPERTY
W(PB)
SciTegic.value.DoubleValue
-59.821

@<SCITEGIC>MOL_PROPERTY
W(SA)
SciTegic.value.DoubleValue
1.855

@<SCITEGIC>MOL_PROPERTY
Valence
SciTegic.value.DoubleValue
5.347

@<SCITEGIC>MOL_PROPERTY
Coulomb
SciTegic.value.DoubleValue
45.870

@<SCITEGIC>MOL_PROPERTY
VdW
SciTegic.value.DoubleValue
0.325

@<SCITEGIC>MOL_PROPERTY
VdW6
SciTegic.value.DoubleValue
-6.161

@<SCITEGIC>MOL_PROPERTY
VdW12
SciTegic.value.DoubleValue
6.486

@<SCITEGIC>MOL_PROPERTY
Bond
SciTegic.value.DoubleValue
0.201

@<SCITEGIC>MOL_PROPERTY
Angle
SciTegic.value.DoubleValue
1.485

@<SCITEGIC>MOL_PROPERTY
Pdih
SciTegic.value.DoubleValue
3.662

@<SCITEGIC>MOL_PROPERTY
Idih
SciTegic.value.DoubleValue
0.000

@<SCITEGIC>MOL_PROPERTY
Tether
SciTegic.value.DoubleValue
0.000

@<TRIPOS>MOLECULE
guest-s11_confgen4.mol2 : confsearch ligand conformer 481
          20          19           1
SMALL
USER_CHARGES
 
@<TRIPOS>ATOM
       1    N1      18.829338   16.212586   22.159280 N.4        1 MOL1        -0.5919
       2    H1      17.882580   16.451936   22.470323 H          1 MOL1         0.3682
       3    H2      18.730527   15.503459   21.425131 H          1 MOL1         0.3682
       4    H3      19.300120   15.759169   22.948688 H          1 MOL1         0.3682
       5    C1      19.589110   17.428647   21.668944 C.3        1 MOL1         0.0252
       6    H4      19.049147   17.841222   20.812359 H          1 MOL1         0.0971
       7    H5      20.573057   17.096542   21.326789 H          1 MOL1         0.0971
       8    C2      19.755152   18.513800   22.747897 C.3        1 MOL1        -0.1369
       9    H6      18.765047   18.832888   23.099952 H          1 MOL1         0.0997
      10    H7      20.283710   18.090784   23.612623 H          1 MOL1         0.0997
      11    C3      20.533693   19.734158   22.208144 C.3        1 MOL1        -0.1329
      12    H8      20.004846   20.151646   21.339920 H          1 MOL1         0.0997
      13    H9      21.521725   19.410455   21.852052 H          1 MOL1         0.0997
      14    C4      20.706463   20.830539   23.283149 C.3        1 MOL1        -0.1305
      15    H10     19.720301   21.158737   23.640664 H          1 MOL1         0.0997
      16    H11     21.237046   20.417694   24.152682 H          1 MOL1         0.0997
      17    C5      21.484719   22.047760   22.739394 C.3        1 MOL1        -0.2320
      18    H12     20.960763   22.504055   21.889405 H          1 MOL1         0.1008
      19    H13     21.597051   22.814846   23.516572 H          1 MOL1         0.1008
      20    H14     22.489395   21.757264   22.405549 H          1 MOL1         0.1008
@<TRIPOS>BOND
    1     1     2    1
    2     1     3    1
    3     1     4    1
    4     1     5    1
    5     5     6    1
    6     5     7    1
    7     5     8    1
    8     8     9    1
    9     8    10    1
   10     8    11    1
   11    11    12    1
   12    11    13    1
   13    11    14    1
   14    14    15    1
   15    14    16    1
   16    14    17    1
   17    17    18    1
   18    17    19    1
   19    17    20    1
@<TRIPOS>SUBSTRUCTURE
       1 MOL1            1 RESIDUE      1      MOL     
@<SCITEGIC>MOL_PROPERTY
VConf Rank
SciTegic.value.IntegerValue
481

@<SCITEGIC>MOL_PROPERTY
Conf_Id
SciTegic.value.IntegerValue
72

@<SCITEGIC>MOL_PROPERTY
Delta U+W
SciTegic.value.DoubleValue
0.000

@<SCITEGIC>MOL_PROPERTY
U+W
SciTegic.value.DoubleValue
-11.778

@<SCITEGIC>MOL_PROPERTY
Grad RMS
SciTegic.value.DoubleValue
0.000000

@<SCITEGIC>MOL_PROPERTY
U
SciTegic.value.DoubleValue
45.772

@<SCITEGIC>MOL_PROPERTY
W
SciTegic.value.DoubleValue
-57.550

@<SCITEGIC>MOL_PROPERTY
W(PB)
SciTegic.value.DoubleValue
-59.511

@<SCITEGIC>MOL_PROPERTY
W(SA)
SciTegic.value.DoubleValue
1.961

@<SCITEGIC>MOL_PROPERTY
Valence
SciTegic.value.DoubleValue
1.299

@<SCITEGIC>MOL_PROPERTY
Coulomb
SciTegic.value.DoubleValue
44.177

@<SCITEGIC>MOL_PROPERTY
VdW
SciTegic.value.DoubleValue
0.297

@<SCITEGIC>MOL_PROPERTY
VdW6
SciTegic.value.DoubleValue
-3.490

@<SCITEGIC>MOL_PROPERTY
VdW12
SciTegic.value.DoubleValue
3.786

@<SCITEGIC>MOL_PROPERTY
Bond
SciTegic.value.DoubleValue
0.096

@<SCITEGIC>MOL_PROPERTY
Angle
SciTegic.value.DoubleValue
0.381

@<SCITEGIC>MOL_PROPERTY
Pdih
SciTegic.value.DoubleValue
0.822

@<SCITEGIC>MOL_PROPERTY
Idih
SciTegic.value.DoubleValue
0.000

@<SCITEGIC>MOL_PROPERTY
Tether
SciTegic.value.DoubleValue
0.000

@<TRIPOS>MOLECULE
guest-s11_confgen4.mol2 : confsearch ligand conformer 482
          20          19           1
SMALL
USER_CHARGES
 
@<TRIPOS>ATOM
       1    N1      17.986151   17.880322   20.788668 N.4        1 MOL1        -0.5919
       2    H1      18.597661   17.901274   19.966505 H          1 MOL1         0.3682
       3    H2      18.051085   16.938942   21.188606 H          1 MOL1         0.3682
       4    H3      17.025624   17.992647   20.447562 H          1 MOL1         0.3682
       5    C1      18.354482   18.950599   21.796346 C.3        1 MOL1         0.0252
       6    H4      17.646247   18.889798   22.627129 H          1 MOL1         0.0971
       7    H5      18.234524   19.924334   21.313692 H          1 MOL1         0.0971
       8    C2      19.791569   18.810832   22.329747 C.3        1 MOL1        -0.1369
       9    H6      19.912163   17.825583   22.799378 H          1 MOL1         0.0997
      10    H7      20.492049   18.855426   21.486299 H          1 MOL1         0.0997
      11    C3      20.122871   19.920660   23.355246 C.3        1 MOL1        -0.1329
      12    H8      19.366184   19.908832   24.152132 H          1 MOL1         0.0997
      13    H9      20.047192   20.905058   22.872733 H          1 MOL1         0.0997
      14    C4      21.521170   19.767231   24.001690 C.3        1 MOL1        -0.1305
      15    H10     21.632108   20.528270   24.786834 H          1 MOL1         0.0997
      16    H11     21.592879   18.793425   24.506107 H          1 MOL1         0.0997
      17    C5      22.684089   19.917753   22.994470 C.3        1 MOL1        -0.2320
      18    H12     22.619473   20.872133   22.455955 H          1 MOL1         0.1008
      19    H13     23.649636   19.891993   23.516014 H          1 MOL1         0.1008
      20    H14     22.686871   19.105784   22.256824 H          1 MOL1         0.1008
@<TRIPOS>BOND
    1     1     2    1
    2     1     3    1
    3     1     4    1
    4     1     5    1
    5     5     6    1
    6     5     7    1
    7     5     8    1
    8     8     9    1
    9     8    10    1
   10     8    11    1
   11    11    12    1
   12    11    13    1
   13    11    14    1
   14    14    15    1
   15    14    16    1
   16    14    17    1
   17    17    18    1
   18    17    19    1
   19    17    20    1
@<TRIPOS>SUBSTRUCTURE
       1 MOL1            1 RESIDUE      1      MOL     
@<SCITEGIC>MOL_PROPERTY
VConf Rank
SciTegic.value.IntegerValue
482

@<SCITEGIC>MOL_PROPERTY
Conf_Id
SciTegic.value.IntegerValue
42

@<SCITEGIC>MOL_PROPERTY
Delta U+W
SciTegic.value.DoubleValue
0.508

@<SCITEGIC>MOL_PROPERTY
U+W
SciTegic.value.DoubleValue
-11.270

@<SCITEGIC>MOL_PROPERTY
Grad RMS
SciTegic.value.DoubleValue
0.000000

@<SCITEGIC>MOL_PROPERTY
U
SciTegic.value.DoubleValue
46.486

@<SCITEGIC>MOL_PROPERTY
W
SciTegic.value.DoubleValue
-57.756

@<SCITEGIC>MOL_PROPERTY
W(PB)
SciTegic.value.DoubleValue
-59.705

@<SCITEGIC>MOL_PROPERTY
W(SA)
SciTegic.value.DoubleValue
1.949

@<SCITEGIC>MOL_PROPERTY
Valence
SciTegic.value.DoubleValue
1.806

@<SCITEGIC>MOL_PROPERTY
Coulomb
SciTegic.value.DoubleValue
44.248

@<SCITEGIC>MOL_PROPERTY
VdW
SciTegic.value.DoubleValue
0.433

@<SCITEGIC>MOL_PROPERTY
VdW6
SciTegic.value.DoubleValue
-4.089

@<SCITEGIC>MOL_PROPERTY
VdW12
SciTegic.value.DoubleValue
4.522

@<SCITEGIC>MOL_PROPERTY
Bond
SciTegic.value.DoubleValue
0.131

@<SCITEGIC>MOL_PROPERTY
Angle
SciTegic.value.DoubleValue
0.628

@<SCITEGIC>MOL_PROPERTY
Pdih
SciTegic.value.DoubleValue
1.047

@<SCITEGIC>MOL_PROPERTY
Idih
SciTegic.value.DoubleValue
0.000

@<SCITEGIC>MOL_PROPERTY
Tether
SciTegic.value.DoubleValue
0.000

@<TRIPOS>MOLECULE
guest-s11_confgen4.mol2 : confsearch ligand conformer 483
          20          19           1
SMALL
USER_CHARGES
 
@<TRIPOS>ATOM
       1    N1      18.099303   18.347334   20.411950 N.4        1 MOL1        -0.5919
       2    H1      17.373505   18.009859   21.052021 H          1 MOL1         0.3682
       3    H2      17.905057   19.337235   20.231124 H          1 MOL1         0.3682
       4    H3      17.966580   17.851449   19.524220 H          1 MOL1         0.3682
       5    C1      19.491489   18.136105   20.972113 C.3        1 MOL1         0.0252
       6    H4      20.211582   18.489010   20.228856 H          1 MOL1         0.0971
       7    H5      19.639941   17.061740   21.110663 H          1 MOL1         0.0971
       8    C2      19.724414   18.867338   22.306398 C.3        1 MOL1        -0.1369
       9    H6      19.555462   19.941591   22.159759 H          1 MOL1         0.0997
      10    H7      18.989177   18.521544   23.045089 H          1 MOL1         0.0997
      11    C3      21.155074   18.622321   22.841481 C.3        1 MOL1        -0.1329
      12    H8      21.890498   19.010179   22.122937 H          1 MOL1         0.0997
      13    H9      21.331220   17.539659   22.908986 H          1 MOL1         0.0997
      14    C4      21.410256   19.250428   24.233254 C.3        1 MOL1        -0.1305
      15    H10     20.691845   18.847148   24.960666 H          1 MOL1         0.0997
      16    H11     22.405823   18.942076   24.582114 H          1 MOL1         0.0997
      17    C5      21.338775   20.794586   24.233433 C.3        1 MOL1        -0.2320
      18    H12     20.326464   21.151849   24.007573 H          1 MOL1         0.1008
      19    H13     21.615878   21.191762   25.218530 H          1 MOL1         0.1008
      20    H14     22.027999   21.222203   23.493752 H          1 MOL1         0.1008
@<TRIPOS>BOND
    1     1     2    1
    2     1     3    1
    3     1     4    1
    4     1     5    1
    5     5     6    1
    6     5     7    1
    7     5     8    1
    8     8     9    1
    9     8    10    1
   10     8    11    1
   11    11    12    1
   12    11    13    1
   13    11    14    1
   14    14    15    1
   15    14    16    1
   16    14    17    1
   17    17    18    1
   18    17    19    1
   19    17    20    1
@<TRIPOS>SUBSTRUCTURE
       1 MOL1            1 RESIDUE      1      MOL     
@<SCITEGIC>MOL_PROPERTY
VConf Rank
SciTegic.value.IntegerValue
483

@<SCITEGIC>MOL_PROPERTY
Conf_Id
SciTegic.value.IntegerValue
41

@<SCITEGIC>MOL_PROPERTY
Delta U+W
SciTegic.value.DoubleValue
0.515

@<SCITEGIC>MOL_PROPERTY
U+W
SciTegic.value.DoubleValue
-11.263

@<SCITEGIC>MOL_PROPERTY
Grad RMS
SciTegic.value.DoubleValue
0.000000

@<SCITEGIC>MOL_PROPERTY
U
SciTegic.value.DoubleValue
46.486

@<SCITEGIC>MOL_PROPERTY
W
SciTegic.value.DoubleValue
-57.749

@<SCITEGIC>MOL_PROPERTY
W(PB)
SciTegic.value.DoubleValue
-59.685

@<SCITEGIC>MOL_PROPERTY
W(SA)
SciTegic.value.DoubleValue
1.936

@<SCITEGIC>MOL_PROPERTY
Valence
SciTegic.value.DoubleValue
1.806

@<SCITEGIC>MOL_PROPERTY
Coulomb
SciTegic.value.DoubleValue
44.248

@<SCITEGIC>MOL_PROPERTY
VdW
SciTegic.value.DoubleValue
0.433

@<SCITEGIC>MOL_PROPERTY
VdW6
SciTegic.value.DoubleValue
-4.089

@<SCITEGIC>MOL_PROPERTY
VdW12
SciTegic.value.DoubleValue
4.522

@<SCITEGIC>MOL_PROPERTY
Bond
SciTegic.value.DoubleValue
0.131

@<SCITEGIC>MOL_PROPERTY
Angle
SciTegic.value.DoubleValue
0.628

@<SCITEGIC>MOL_PROPERTY
Pdih
SciTegic.value.DoubleValue
1.047

@<SCITEGIC>MOL_PROPERTY
Idih
SciTegic.value.DoubleValue
0.000

@<SCITEGIC>MOL_PROPERTY
Tether
SciTegic.value.DoubleValue
0.000

@<TRIPOS>MOLECULE
guest-s11_confgen4.mol2 : confsearch ligand conformer 484
          20          19           1
SMALL
USER_CHARGES
 
@<TRIPOS>ATOM
       1    N1      20.335837   19.781226   19.782000 N.4        1 MOL1        -0.5919
       2    H1      20.790645   20.266210   19.001333 H          1 MOL1         0.3682
       3    H2      20.720493   18.832386   19.808111 H          1 MOL1         0.3682
       4    H3      19.342636   19.698985   19.543288 H          1 MOL1         0.3682
       5    C1      20.542646   20.511379   21.095115 C.3        1 MOL1         0.0252
       6    H4      20.148441   21.524253   20.975579 H          1 MOL1         0.0971
       7    H5      21.618159   20.584847   21.277643 H          1 MOL1         0.0971
       8    C2      19.857001   19.837016   22.299687 C.3        1 MOL1        -0.1369
       9    H6      19.966969   20.500343   23.166585 H          1 MOL1         0.0997
      10    H7      18.779774   19.748867   22.106038 H          1 MOL1         0.0997
      11    C3      20.454310   18.445011   22.626277 C.3        1 MOL1        -0.1329
      12    H8      21.527357   18.544283   22.841183 H          1 MOL1         0.0997
      13    H9      20.374741   17.796878   21.743554 H          1 MOL1         0.0997
      14    C4      19.753537   17.735961   23.810822 C.3        1 MOL1        -0.1305
      15    H10     18.681999   17.621962   23.594778 H          1 MOL1         0.0997
      16    H11     20.158086   16.718039   23.900908 H          1 MOL1         0.0997
      17    C5      19.937216   18.464562   25.161809 C.3        1 MOL1        -0.2320
      18    H12     19.439101   19.441874   25.165011 H          1 MOL1         0.1008
      19    H13     19.504986   17.872645   25.978975 H          1 MOL1         0.1008
      20    H14     21.000597   18.619023   25.386232 H          1 MOL1         0.1008
@<TRIPOS>BOND
    1     1     2    1
    2     1     3    1
    3     1     4    1
    4     1     5    1
    5     5     6    1
    6     5     7    1
    7     5     8    1
    8     8     9    1
    9     8    10    1
   10     8    11    1
   11    11    12    1
   12    11    13    1
   13    11    14    1
   14    14    15    1
   15    14    16    1
   16    14    17    1
   17    17    18    1
   18    17    19    1
   19    17    20    1
@<TRIPOS>SUBSTRUCTURE
       1 MOL1            1 RESIDUE      1      MOL     
@<SCITEGIC>MOL_PROPERTY
VConf Rank
SciTegic.value.IntegerValue
484

@<SCITEGIC>MOL_PROPERTY
Conf_Id
SciTegic.value.IntegerValue
33

@<SCITEGIC>MOL_PROPERTY
Delta U+W
SciTegic.value.DoubleValue
0.703

@<SCITEGIC>MOL_PROPERTY
U+W
SciTegic.value.DoubleValue
-11.075

@<SCITEGIC>MOL_PROPERTY
Grad RMS
SciTegic.value.DoubleValue
0.000000

@<SCITEGIC>MOL_PROPERTY
U
SciTegic.value.DoubleValue
47.080

@<SCITEGIC>MOL_PROPERTY
W
SciTegic.value.DoubleValue
-58.154

@<SCITEGIC>MOL_PROPERTY
W(PB)
SciTegic.value.DoubleValue
-60.053

@<SCITEGIC>MOL_PROPERTY
W(SA)
SciTegic.value.DoubleValue
1.899

@<SCITEGIC>MOL_PROPERTY
Valence
SciTegic.value.DoubleValue
1.943

@<SCITEGIC>MOL_PROPERTY
Coulomb
SciTegic.value.DoubleValue
44.572

@<SCITEGIC>MOL_PROPERTY
VdW
SciTegic.value.DoubleValue
0.565

@<SCITEGIC>MOL_PROPERTY
VdW6
SciTegic.value.DoubleValue
-4.575

@<SCITEGIC>MOL_PROPERTY
VdW12
SciTegic.value.DoubleValue
5.139

@<SCITEGIC>MOL_PROPERTY
Bond
SciTegic.value.DoubleValue
0.158

@<SCITEGIC>MOL_PROPERTY
Angle
SciTegic.value.DoubleValue
0.700

@<SCITEGIC>MOL_PROPERTY
Pdih
SciTegic.value.DoubleValue
1.085

@<SCITEGIC>MOL_PROPERTY
Idih
SciTegic.value.DoubleValue
0.000

@<SCITEGIC>MOL_PROPERTY
Tether
SciTegic.value.DoubleValue
0.000

@<TRIPOS>MOLECULE
guest-s11_confgen4.mol2 : confsearch ligand conformer 485
          20          19           1
SMALL
USER_CHARGES
 
@<TRIPOS>ATOM
       1    N1      20.820967   20.025375   24.990902 N.4        1 MOL1        -0.5919
       2    H1      21.294531   20.684508   25.617625 H          1 MOL1         0.3682
       3    H2      19.997179   19.677919   25.491743 H          1 MOL1         0.3682
       4    H3      21.453768   19.230634   24.860952 H          1 MOL1         0.3682
       5    C1      20.448189   20.672857   23.671067 C.3        1 MOL1         0.0252
       6    H4      21.364737   21.040504   23.201793 H          1 MOL1         0.0971
       7    H5      19.811604   21.533608   23.893481 H          1 MOL1         0.0971
       8    C2      19.709883   19.731021   22.699619 C.3        1 MOL1        -0.1369
       9    H6      18.799072   19.349818   23.180035 H          1 MOL1         0.0997
      10    H7      19.384661   20.323562   21.835481 H          1 MOL1         0.0997
      11    C3      20.593454   18.550782   22.222695 C.3        1 MOL1        -0.1329
      12    H8      20.945905   17.982763   23.093753 H          1 MOL1         0.0997
      13    H9      21.491640   18.939614   21.723155 H          1 MOL1         0.0997
      14    C4      19.857076   17.573294   21.274412 C.3        1 MOL1        -0.1305
      15    H10     20.512303   16.713137   21.077566 H          1 MOL1         0.0997
      16    H11     18.965001   17.170973   21.774619 H          1 MOL1         0.0997
      17    C5      19.454070   18.209600   19.924425 C.3        1 MOL1        -0.2320
      18    H12     20.324243   18.647516   19.418427 H          1 MOL1         0.1008
      19    H13     19.024187   17.452174   19.256253 H          1 MOL1         0.1008
      20    H14     18.700984   18.996076   20.057047 H          1 MOL1         0.1008
@<TRIPOS>BOND
    1     1     2    1
    2     1     3    1
    3     1     4    1
    4     1     5    1
    5     5     6    1
    6     5     7    1
    7     5     8    1
    8     8     9    1
    9     8    10    1
   10     8    11    1
   11    11    12    1
   12    11    13    1
   13    11    14    1
   14    14    15    1
   15    14    16    1
   16    14    17    1
   17    17    18    1
   18    17    19    1
   19    17    20    1
@<TRIPOS>SUBSTRUCTURE
       1 MOL1            1 RESIDUE      1      MOL     
@<SCITEGIC>MOL_PROPERTY
VConf Rank
SciTegic.value.IntegerValue
485

@<SCITEGIC>MOL_PROPERTY
Conf_Id
SciTegic.value.IntegerValue
24

@<SCITEGIC>MOL_PROPERTY
Delta U+W
SciTegic.value.DoubleValue
0.847

@<SCITEGIC>MOL_PROPERTY
U+W
SciTegic.value.DoubleValue
-10.931

@<SCITEGIC>MOL_PROPERTY
Grad RMS
SciTegic.value.DoubleValue
0.000000

@<SCITEGIC>MOL_PROPERTY
U
SciTegic.value.DoubleValue
47.080

@<SCITEGIC>MOL_PROPERTY
W
SciTegic.value.DoubleValue
-58.011

@<SCITEGIC>MOL_PROPERTY
W(PB)
SciTegic.value.DoubleValue
-59.914

@<SCITEGIC>MOL_PROPERTY
W(SA)
SciTegic.value.DoubleValue
1.903

@<SCITEGIC>MOL_PROPERTY
Valence
SciTegic.value.DoubleValue
1.943

@<SCITEGIC>MOL_PROPERTY
Coulomb
SciTegic.value.DoubleValue
44.572

@<SCITEGIC>MOL_PROPERTY
VdW
SciTegic.value.DoubleValue
0.565

@<SCITEGIC>MOL_PROPERTY
VdW6
SciTegic.value.DoubleValue
-4.575

@<SCITEGIC>MOL_PROPERTY
VdW12
SciTegic.value.DoubleValue
5.140

@<SCITEGIC>MOL_PROPERTY
Bond
SciTegic.value.DoubleValue
0.158

@<SCITEGIC>MOL_PROPERTY
Angle
SciTegic.value.DoubleValue
0.700

@<SCITEGIC>MOL_PROPERTY
Pdih
SciTegic.value.DoubleValue
1.085

@<SCITEGIC>MOL_PROPERTY
Idih
SciTegic.value.DoubleValue
0.000

@<SCITEGIC>MOL_PROPERTY
Tether
SciTegic.value.DoubleValue
0.000

@<TRIPOS>MOLECULE
guest-s11_confgen4.mol2 : confsearch ligand conformer 486
          20          19           1
SMALL
USER_CHARGES
 
@<TRIPOS>ATOM
       1    N1      19.793978   17.964531   24.914958 N.4        1 MOL1        -0.5919
       2    H1      18.922736   17.875513   25.448346 H          1 MOL1         0.3682
       3    H2      19.983895   17.046770   24.500389 H          1 MOL1         0.3682
       4    H3      20.539827   18.148864   25.593222 H          1 MOL1         0.3682
       5    C1      19.702476   19.052803   23.864426 C.3        1 MOL1         0.0252
       6    H4      19.470440   19.993339   24.371308 H          1 MOL1         0.0971
       7    H5      18.871565   18.807123   23.197934 H          1 MOL1         0.0971
       8    C2      20.996245   19.212248   23.043837 C.3        1 MOL1        -0.1369
       9    H6      21.831385   19.417539   23.726593 H          1 MOL1         0.0997
      10    H7      21.235059   18.265963   22.541874 H          1 MOL1         0.0997
      11    C3      20.908972   20.356712   22.003366 C.3        1 MOL1        -0.1329
      12    H8      21.864475   20.422200   21.464860 H          1 MOL1         0.0997
      13    H9      20.795038   21.312515   22.533414 H          1 MOL1         0.0997
      14    C4      19.756718   20.215856   20.975895 C.3        1 MOL1        -0.1305
      15    H10     18.785229   20.254903   21.487228 H          1 MOL1         0.0997
      16    H11     19.778334   21.085396   20.304096 H          1 MOL1         0.0997
      17    C5      19.845313   18.927962   20.125902 C.3        1 MOL1        -0.2320
      18    H12     19.064168   18.921791   19.354749 H          1 MOL1         0.1008
      19    H13     20.816734   18.854743   19.619981 H          1 MOL1         0.1008
      20    H14     19.708694   18.029520   20.740535 H          1 MOL1         0.1008
@<TRIPOS>BOND
    1     1     2    1
    2     1     3    1
    3     1     4    1
    4     1     5    1
    5     5     6    1
    6     5     7    1
    7     5     8    1
    8     8     9    1
    9     8    10    1
   10     8    11    1
   11    11    12    1
   12    11    13    1
   13    11    14    1
   14    14    15    1
   15    14    16    1
   16    14    17    1
   17    17    18    1
   18    17    19    1
   19    17    20    1
@<TRIPOS>SUBSTRUCTURE
       1 MOL1            1 RESIDUE      1      MOL     
@<SCITEGIC>MOL_PROPERTY
VConf Rank
SciTegic.value.IntegerValue
486

@<SCITEGIC>MOL_PROPERTY
Conf_Id
SciTegic.value.IntegerValue
64

@<SCITEGIC>MOL_PROPERTY
Delta U+W
SciTegic.value.DoubleValue
0.707

@<SCITEGIC>MOL_PROPERTY
U+W
SciTegic.value.DoubleValue
-11.070

@<SCITEGIC>MOL_PROPERTY
Grad RMS
SciTegic.value.DoubleValue
0.000000

@<SCITEGIC>MOL_PROPERTY
U
SciTegic.value.DoubleValue
47.077

@<SCITEGIC>MOL_PROPERTY
W
SciTegic.value.DoubleValue
-58.148

@<SCITEGIC>MOL_PROPERTY
W(PB)
SciTegic.value.DoubleValue
-60.054

@<SCITEGIC>MOL_PROPERTY
W(SA)
SciTegic.value.DoubleValue
1.906

@<SCITEGIC>MOL_PROPERTY
Valence
SciTegic.value.DoubleValue
2.039

@<SCITEGIC>MOL_PROPERTY
Coulomb
SciTegic.value.DoubleValue
44.655

@<SCITEGIC>MOL_PROPERTY
VdW
SciTegic.value.DoubleValue
0.383

@<SCITEGIC>MOL_PROPERTY
VdW6
SciTegic.value.DoubleValue
-4.912

@<SCITEGIC>MOL_PROPERTY
VdW12
SciTegic.value.DoubleValue
5.295

@<SCITEGIC>MOL_PROPERTY
Bond
SciTegic.value.DoubleValue
0.159

@<SCITEGIC>MOL_PROPERTY
Angle
SciTegic.value.DoubleValue
0.856

@<SCITEGIC>MOL_PROPERTY
Pdih
SciTegic.value.DoubleValue
1.024

@<SCITEGIC>MOL_PROPERTY
Idih
SciTegic.value.DoubleValue
0.000

@<SCITEGIC>MOL_PROPERTY
Tether
SciTegic.value.DoubleValue
0.000

@<TRIPOS>MOLECULE
guest-s11_confgen4.mol2 : confsearch ligand conformer 487
          20          19           1
SMALL
USER_CHARGES
 
@<TRIPOS>ATOM
       1    N1      20.530149   20.357483   24.889797 N.4        1 MOL1        -0.5919
       2    H1      20.040724   19.920423   25.677038 H          1 MOL1         0.3682
       3    H2      21.510402   20.063542   24.943886 H          1 MOL1         0.3682
       4    H3      20.513475   21.369449   25.054525 H          1 MOL1         0.3682
       5    C1      19.901901   19.992939   23.559857 C.3        1 MOL1         0.0252
       6    H4      20.453006   20.515586   22.773659 H          1 MOL1         0.0971
       7    H5      18.872078   20.360148   23.560472 H          1 MOL1         0.0971
       8    C2      19.911375   18.478089   23.281002 C.3        1 MOL1        -0.1369
       9    H6      20.944092   18.106764   23.289258 H          1 MOL1         0.0997
      10    H7      19.391550   17.959526   24.097479 H          1 MOL1         0.0997
      11    C3      19.226973   18.110992   21.940543 C.3        1 MOL1        -0.1329
      12    H8      18.162482   18.377314   21.999063 H          1 MOL1         0.0997
      13    H9      19.258612   17.020311   21.811397 H          1 MOL1         0.0997
      14    C4      19.842213   18.787660   20.688815 C.3        1 MOL1        -0.1305
      15    H10     19.270973   18.472938   19.804214 H          1 MOL1         0.0997
      16    H11     19.724703   19.878152   20.750406 H          1 MOL1         0.0997
      17    C5      21.331560   18.436900   20.470139 C.3        1 MOL1        -0.2320
      18    H12     21.478896   17.350028   20.425650 H          1 MOL1         0.1008
      19    H13     21.692200   18.863267   19.525123 H          1 MOL1         0.1008
      20    H14     21.961853   18.837121   21.273998 H          1 MOL1         0.1008
@<TRIPOS>BOND
    1     1     2    1
    2     1     3    1
    3     1     4    1
    4     1     5    1
    5     5     6    1
    6     5     7    1
    7     5     8    1
    8     8     9    1
    9     8    10    1
   10     8    11    1
   11    11    12    1
   12    11    13    1
   13    11    14    1
   14    14    15    1
   15    14    16    1
   16    14    17    1
   17    17    18    1
   18    17    19    1
   19    17    20    1
@<TRIPOS>SUBSTRUCTURE
       1 MOL1            1 RESIDUE      1      MOL     
@<SCITEGIC>MOL_PROPERTY
VConf Rank
SciTegic.value.IntegerValue
487

@<SCITEGIC>MOL_PROPERTY
Conf_Id
SciTegic.value.IntegerValue
22

@<SCITEGIC>MOL_PROPERTY
Delta U+W
SciTegic.value.DoubleValue
0.731

@<SCITEGIC>MOL_PROPERTY
U+W
SciTegic.value.DoubleValue
-11.047

@<SCITEGIC>MOL_PROPERTY
Grad RMS
SciTegic.value.DoubleValue
0.000000

@<SCITEGIC>MOL_PROPERTY
U
SciTegic.value.DoubleValue
47.078

@<SCITEGIC>MOL_PROPERTY
W
SciTegic.value.DoubleValue
-58.125

@<SCITEGIC>MOL_PROPERTY
W(PB)
SciTegic.value.DoubleValue
-60.031

@<SCITEGIC>MOL_PROPERTY
W(SA)
SciTegic.value.DoubleValue
1.906

@<SCITEGIC>MOL_PROPERTY
Valence
SciTegic.value.DoubleValue
2.039

@<SCITEGIC>MOL_PROPERTY
Coulomb
SciTegic.value.DoubleValue
44.655

@<SCITEGIC>MOL_PROPERTY
VdW
SciTegic.value.DoubleValue
0.383

@<SCITEGIC>MOL_PROPERTY
VdW6
SciTegic.value.DoubleValue
-4.913

@<SCITEGIC>MOL_PROPERTY
VdW12
SciTegic.value.DoubleValue
5.296

@<SCITEGIC>MOL_PROPERTY
Bond
SciTegic.value.DoubleValue
0.159

@<SCITEGIC>MOL_PROPERTY
Angle
SciTegic.value.DoubleValue
0.856

@<SCITEGIC>MOL_PROPERTY
Pdih
SciTegic.value.DoubleValue
1.024

@<SCITEGIC>MOL_PROPERTY
Idih
SciTegic.value.DoubleValue
0.000

@<SCITEGIC>MOL_PROPERTY
Tether
SciTegic.value.DoubleValue
0.000

@<TRIPOS>MOLECULE
guest-s11_confgen4.mol2 : confsearch ligand conformer 488
          20          19           1
SMALL
USER_CHARGES
 
@<TRIPOS>ATOM
       1    N1      20.947038   17.490574   24.502095 N.4        1 MOL1        -0.5919
       2    H1      21.623433   18.061264   25.018948 H          1 MOL1         0.3682
       3    H2      20.186473   17.264033   25.150579 H          1 MOL1         0.3682
       4    H3      21.415768   16.607547   24.273953 H          1 MOL1         0.3682
       5    C1      20.441251   18.197259   23.260569 C.3        1 MOL1         0.0252
       6    H4      19.749355   17.524622   22.746531 H          1 MOL1         0.0971
       7    H5      21.299305   18.377812   22.609100 H          1 MOL1         0.0971
       8    C2      19.736752   19.530386   23.568990 C.3        1 MOL1        -0.1369
       9    H6      18.953244   19.350783   24.317177 H          1 MOL1         0.0997
      10    H7      20.452412   20.223919   24.030106 H          1 MOL1         0.0997
      11    C3      19.088164   20.199443   22.330600 C.3        1 MOL1        -0.1329
      12    H8      18.542136   21.085666   22.682755 H          1 MOL1         0.0997
      13    H9      18.327693   19.535865   21.896207 H          1 MOL1         0.0997
      14    C4      20.087861   20.656435   21.236546 C.3        1 MOL1        -0.1305
      15    H10     19.649069   21.512295   20.704505 H          1 MOL1         0.0997
      16    H11     21.012921   21.030146   21.697355 H          1 MOL1         0.0997
      17    C5      20.412987   19.565499   20.189173 C.3        1 MOL1        -0.2320
      18    H12     20.938578   18.711096   20.628063 H          1 MOL1         0.1008
      19    H13     19.497600   19.193460   19.710992 H          1 MOL1         0.1008
      20    H14     21.056566   19.974507   19.399552 H          1 MOL1         0.1008
@<TRIPOS>BOND
    1     1     2    1
    2     1     3    1
    3     1     4    1
    4     1     5    1
    5     5     6    1
    6     5     7    1
    7     5     8    1
    8     8     9    1
    9     8    10    1
   10     8    11    1
   11    11    12    1
   12    11    13    1
   13    11    14    1
   14    14    15    1
   15    14    16    1
   16    14    17    1
   17    17    18    1
   18    17    19    1
   19    17    20    1
@<TRIPOS>SUBSTRUCTURE
       1 MOL1            1 RESIDUE      1      MOL     
@<SCITEGIC>MOL_PROPERTY
VConf Rank
SciTegic.value.IntegerValue
488

@<SCITEGIC>MOL_PROPERTY
Conf_Id
SciTegic.value.IntegerValue
61

@<SCITEGIC>MOL_PROPERTY
Delta U+W
SciTegic.value.DoubleValue
2.669

@<SCITEGIC>MOL_PROPERTY
U+W
SciTegic.value.DoubleValue
-9.108

@<SCITEGIC>MOL_PROPERTY
Grad RMS
SciTegic.value.DoubleValue
0.000000

@<SCITEGIC>MOL_PROPERTY
U
SciTegic.value.DoubleValue
48.916

@<SCITEGIC>MOL_PROPERTY
W
SciTegic.value.DoubleValue
-58.025

@<SCITEGIC>MOL_PROPERTY
W(PB)
SciTegic.value.DoubleValue
-59.935

@<SCITEGIC>MOL_PROPERTY
W(SA)
SciTegic.value.DoubleValue
1.911

@<SCITEGIC>MOL_PROPERTY
Valence
SciTegic.value.DoubleValue
3.785

@<SCITEGIC>MOL_PROPERTY
Coulomb
SciTegic.value.DoubleValue
44.716

@<SCITEGIC>MOL_PROPERTY
VdW
SciTegic.value.DoubleValue
0.415

@<SCITEGIC>MOL_PROPERTY
VdW6
SciTegic.value.DoubleValue
-4.836

@<SCITEGIC>MOL_PROPERTY
VdW12
SciTegic.value.DoubleValue
5.251

@<SCITEGIC>MOL_PROPERTY
Bond
SciTegic.value.DoubleValue
0.175

@<SCITEGIC>MOL_PROPERTY
Angle
SciTegic.value.DoubleValue
1.195

@<SCITEGIC>MOL_PROPERTY
Pdih
SciTegic.value.DoubleValue
2.415

@<SCITEGIC>MOL_PROPERTY
Idih
SciTegic.value.DoubleValue
0.000

@<SCITEGIC>MOL_PROPERTY
Tether
SciTegic.value.DoubleValue
0.000

@<TRIPOS>MOLECULE
guest-s11_confgen4.mol2 : confsearch ligand conformer 489
          20          19           1
SMALL
USER_CHARGES
 
@<TRIPOS>ATOM
       1    N1      19.031074   19.749531   24.310259 N.4        1 MOL1        -0.5919
       2    H1      18.746824   19.490164   25.260823 H          1 MOL1         0.3682
       3    H2      18.594188   20.653925   24.106537 H          1 MOL1         0.3682
       4    H3      18.615843   19.063490   23.674683 H          1 MOL1         0.3682
       5    C1      20.540322   19.810013   24.172106 C.3        1 MOL1         0.0252
       6    H4      20.955693   18.839385   24.456156 H          1 MOL1         0.0971
       7    H5      20.895882   20.553043   24.891164 H          1 MOL1         0.0971
       8    C2      21.035257   20.199746   22.763340 C.3        1 MOL1        -0.1369
       9    H6      20.424376   21.019786   22.363122 H          1 MOL1         0.0997
      10    H7      22.050900   20.604289   22.866715 H          1 MOL1         0.0997
      11    C3      21.092976   19.025596   21.752494 C.3        1 MOL1        -0.1329
      12    H8      21.754330   18.239283   22.142096 H          1 MOL1         0.0997
      13    H9      21.564744   19.391804   20.830102 H          1 MOL1         0.0997
      14    C4      19.716591   18.414141   21.400360 C.3        1 MOL1        -0.1305
      15    H10     19.294039   17.908666   22.277740 H          1 MOL1         0.0997
      16    H11     19.016357   19.210707   21.112097 H          1 MOL1         0.0997
      17    C5      19.826778   17.391046   20.249641 C.3        1 MOL1        -0.2320
      18    H12     18.844093   16.959713   20.018704 H          1 MOL1         0.1008
      19    H13     20.209450   17.863344   19.335465 H          1 MOL1         0.1008
      20    H14     20.501580   16.567358   20.516945 H          1 MOL1         0.1008
@<TRIPOS>BOND
    1     1     2    1
    2     1     3    1
    3     1     4    1
    4     1     5    1
    5     5     6    1
    6     5     7    1
    7     5     8    1
    8     8     9    1
    9     8    10    1
   10     8    11    1
   11    11    12    1
   12    11    13    1
   13    11    14    1
   14    14    15    1
   15    14    16    1
   16    14    17    1
   17    17    18    1
   18    17    19    1
   19    17    20    1
@<TRIPOS>SUBSTRUCTURE
       1 MOL1            1 RESIDUE      1      MOL     
@<SCITEGIC>MOL_PROPERTY
VConf Rank
SciTegic.value.IntegerValue
489

@<SCITEGIC>MOL_PROPERTY
Conf_Id
SciTegic.value.IntegerValue
69

@<SCITEGIC>MOL_PROPERTY
Delta U+W
SciTegic.value.DoubleValue
2.811

@<SCITEGIC>MOL_PROPERTY
U+W
SciTegic.value.DoubleValue
-8.967

@<SCITEGIC>MOL_PROPERTY
Grad RMS
SciTegic.value.DoubleValue
0.000000

@<SCITEGIC>MOL_PROPERTY
U
SciTegic.value.DoubleValue
49.216

@<SCITEGIC>MOL_PROPERTY
W
SciTegic.value.DoubleValue
-58.183

@<SCITEGIC>MOL_PROPERTY
W(PB)
SciTegic.value.DoubleValue
-60.064

@<SCITEGIC>MOL_PROPERTY
W(SA)
SciTegic.value.DoubleValue
1.881

@<SCITEGIC>MOL_PROPERTY
Valence
SciTegic.value.DoubleValue
2.929

@<SCITEGIC>MOL_PROPERTY
Coulomb
SciTegic.value.DoubleValue
46.006

@<SCITEGIC>MOL_PROPERTY
VdW
SciTegic.value.DoubleValue
0.281

@<SCITEGIC>MOL_PROPERTY
VdW6
SciTegic.value.DoubleValue
-4.909

@<SCITEGIC>MOL_PROPERTY
VdW12
SciTegic.value.DoubleValue
5.190

@<SCITEGIC>MOL_PROPERTY
Bond
SciTegic.value.DoubleValue
0.156

@<SCITEGIC>MOL_PROPERTY
Angle
SciTegic.value.DoubleValue
0.974

@<SCITEGIC>MOL_PROPERTY
Pdih
SciTegic.value.DoubleValue
1.799

@<SCITEGIC>MOL_PROPERTY
Idih
SciTegic.value.DoubleValue
0.000

@<SCITEGIC>MOL_PROPERTY
Tether
SciTegic.value.DoubleValue
0.000

@<TRIPOS>MOLECULE
guest-s11_confgen4.mol2 : confsearch ligand conformer 490
          20          19           1
SMALL
USER_CHARGES
 
@<TRIPOS>ATOM
       1    N1      19.509848   20.636024   20.755568 N.4        1 MOL1        -0.5919
       2    H1      20.263776   19.955476   20.631164 H          1 MOL1         0.3682
       3    H2      18.685390   20.265891   20.272273 H          1 MOL1         0.3682
       4    H3      19.788058   21.488152   20.257452 H          1 MOL1         0.3682
       5    C1      19.227865   20.908601   22.220749 C.3        1 MOL1         0.0252
       6    H4      18.424692   21.649631   22.257437 H          1 MOL1         0.0971
       7    H5      20.119265   21.354175   22.670426 H          1 MOL1         0.0971
       8    C2      18.799271   19.665358   23.028297 C.3        1 MOL1        -0.1369
       9    H6      18.245563   20.014850   23.909850 H          1 MOL1         0.0997
      10    H7      18.088433   19.064542   22.445595 H          1 MOL1         0.0997
      11    C3      19.973288   18.782759   23.524762 C.3        1 MOL1        -0.1329
      12    H8      19.560845   18.001859   24.178646 H          1 MOL1         0.0997
      13    H9      20.643443   19.384948   24.153829 H          1 MOL1         0.0997
      14    C4      20.790832   18.109432   22.397569 C.3        1 MOL1        -0.1305
      15    H10     20.114157   17.593353   21.702072 H          1 MOL1         0.0997
      16    H11     21.334533   18.869065   21.822069 H          1 MOL1         0.0997
      17    C5      21.810783   17.097410   22.961955 C.3        1 MOL1        -0.2320
      18    H12     21.306639   16.293693   23.514314 H          1 MOL1         0.1008
      19    H13     22.388869   16.636005   22.150799 H          1 MOL1         0.1008
      20    H14     22.518523   17.588160   23.642791 H          1 MOL1         0.1008
@<TRIPOS>BOND
    1     1     2    1
    2     1     3    1
    3     1     4    1
    4     1     5    1
    5     5     6    1
    6     5     7    1
    7     5     8    1
    8     8     9    1
    9     8    10    1
   10     8    11    1
   11    11    12    1
   12    11    13    1
   13    11    14    1
   14    14    15    1
   15    14    16    1
   16    14    17    1
   17    17    18    1
   18    17    19    1
   19    17    20    1
@<TRIPOS>SUBSTRUCTURE
       1 MOL1            1 RESIDUE      1      MOL     
@<SCITEGIC>MOL_PROPERTY
VConf Rank
SciTegic.value.IntegerValue
490

@<SCITEGIC>MOL_PROPERTY
Conf_Id
SciTegic.value.IntegerValue
26

@<SCITEGIC>MOL_PROPERTY
Delta U+W
SciTegic.value.DoubleValue
2.809

@<SCITEGIC>MOL_PROPERTY
U+W
SciTegic.value.DoubleValue
-8.969

@<SCITEGIC>MOL_PROPERTY
Grad RMS
SciTegic.value.DoubleValue
0.000000

@<SCITEGIC>MOL_PROPERTY
U
SciTegic.value.DoubleValue
49.216

@<SCITEGIC>MOL_PROPERTY
W
SciTegic.value.DoubleValue
-58.185

@<SCITEGIC>MOL_PROPERTY
W(PB)
SciTegic.value.DoubleValue
-60.088

@<SCITEGIC>MOL_PROPERTY
W(SA)
SciTegic.value.DoubleValue
1.903

@<SCITEGIC>MOL_PROPERTY
Valence
SciTegic.value.DoubleValue
2.929

@<SCITEGIC>MOL_PROPERTY
Coulomb
SciTegic.value.DoubleValue
46.006

@<SCITEGIC>MOL_PROPERTY
VdW
SciTegic.value.DoubleValue
0.281

@<SCITEGIC>MOL_PROPERTY
VdW6
SciTegic.value.DoubleValue
-4.909

@<SCITEGIC>MOL_PROPERTY
VdW12
SciTegic.value.DoubleValue
5.190

@<SCITEGIC>MOL_PROPERTY
Bond
SciTegic.value.DoubleValue
0.156

@<SCITEGIC>MOL_PROPERTY
Angle
SciTegic.value.DoubleValue
0.974

@<SCITEGIC>MOL_PROPERTY
Pdih
SciTegic.value.DoubleValue
1.799

@<SCITEGIC>MOL_PROPERTY
Idih
SciTegic.value.DoubleValue
0.000

@<SCITEGIC>MOL_PROPERTY
Tether
SciTegic.value.DoubleValue
0.000

@<TRIPOS>MOLECULE
guest-s11_confgen4.mol2 : confsearch ligand conformer 491
          20          19           1
SMALL
USER_CHARGES
 
@<TRIPOS>ATOM
       1    N1      20.953305   19.055754   24.735567 N.4        1 MOL1        -0.5919
       2    H1      21.674490   19.522442   24.177863 H          1 MOL1         0.3682
       3    H2      20.591715   19.745694   25.401354 H          1 MOL1         0.3682
       4    H3      21.422113   18.328004   25.285029 H          1 MOL1         0.3682
       5    C1      19.852906   18.483055   23.863708 C.3        1 MOL1         0.0252
       6    H4      19.139016   17.976099   24.518586 H          1 MOL1         0.0971
       7    H5      20.297654   17.734283   23.203047 H          1 MOL1         0.0971
       8    C2      19.112830   19.543585   23.023556 C.3        1 MOL1        -0.1369
       9    H6      18.289162   19.057066   22.485595 H          1 MOL1         0.0997
      10    H7      18.641662   20.271130   23.697586 H          1 MOL1         0.0997
      11    C3      20.021079   20.295520   22.015254 C.3        1 MOL1        -0.1329
      12    H8      20.743784   20.911860   22.566644 H          1 MOL1         0.0997
      13    H9      19.404406   21.002065   21.442797 H          1 MOL1         0.0997
      14    C4      20.790867   19.382318   21.027063 C.3        1 MOL1        -0.1305
      15    H10     21.414472   20.014008   20.379038 H          1 MOL1         0.0997
      16    H11     21.486860   18.731711   21.573690 H          1 MOL1         0.0997
      17    C5      19.864030   18.521024   20.139377 C.3        1 MOL1        -0.2320
      18    H12     19.146297   19.147236   19.593777 H          1 MOL1         0.1008
      19    H13     20.451158   17.961494   19.399720 H          1 MOL1         0.1008
      20    H14     19.301064   17.791046   20.734191 H          1 MOL1         0.1008
@<TRIPOS>BOND
    1     1     2    1
    2     1     3    1
    3     1     4    1
    4     1     5    1
    5     5     6    1
    6     5     7    1
    7     5     8    1
    8     8     9    1
    9     8    10    1
   10     8    11    1
   11    11    12    1
   12    11    13    1
   13    11    14    1
   14    14    15    1
   15    14    16    1
   16    14    17    1
   17    17    18    1
   18    17    19    1
   19    17    20    1
@<TRIPOS>SUBSTRUCTURE
       1 MOL1            1 RESIDUE      1      MOL     
@<SCITEGIC>MOL_PROPERTY
VConf Rank
SciTegic.value.IntegerValue
491

@<SCITEGIC>MOL_PROPERTY
Conf_Id
SciTegic.value.IntegerValue
2

@<SCITEGIC>MOL_PROPERTY
Delta U+W
SciTegic.value.DoubleValue
0.994

@<SCITEGIC>MOL_PROPERTY
U+W
SciTegic.value.DoubleValue
-10.784

@<SCITEGIC>MOL_PROPERTY
Grad RMS
SciTegic.value.DoubleValue
0.000000

@<SCITEGIC>MOL_PROPERTY
U
SciTegic.value.DoubleValue
47.562

@<SCITEGIC>MOL_PROPERTY
W
SciTegic.value.DoubleValue
-58.346

@<SCITEGIC>MOL_PROPERTY
W(PB)
SciTegic.value.DoubleValue
-60.221

@<SCITEGIC>MOL_PROPERTY
W(SA)
SciTegic.value.DoubleValue
1.875

@<SCITEGIC>MOL_PROPERTY
Valence
SciTegic.value.DoubleValue
2.149

@<SCITEGIC>MOL_PROPERTY
Coulomb
SciTegic.value.DoubleValue
45.034

@<SCITEGIC>MOL_PROPERTY
VdW
SciTegic.value.DoubleValue
0.378

@<SCITEGIC>MOL_PROPERTY
VdW6
SciTegic.value.DoubleValue
-5.599

@<SCITEGIC>MOL_PROPERTY
VdW12
SciTegic.value.DoubleValue
5.977

@<SCITEGIC>MOL_PROPERTY
Bond
SciTegic.value.DoubleValue
0.185

@<SCITEGIC>MOL_PROPERTY
Angle
SciTegic.value.DoubleValue
0.935

@<SCITEGIC>MOL_PROPERTY
Pdih
SciTegic.value.DoubleValue
1.028

@<SCITEGIC>MOL_PROPERTY
Idih
SciTegic.value.DoubleValue
0.000

@<SCITEGIC>MOL_PROPERTY
Tether
SciTegic.value.DoubleValue
0.000

@<TRIPOS>MOLECULE
guest-s11_confgen4.mol2 : confsearch ligand conformer 492
          20          19           1
SMALL
USER_CHARGES
 
@<TRIPOS>ATOM
       1    N1      17.904655   19.357308   23.261278 N.4        1 MOL1        -0.5919
       2    H1      17.780071   19.808547   24.172815 H          1 MOL1         0.3682
       3    H2      18.075088   20.099855   22.576795 H          1 MOL1         0.3682
       4    H3      17.007887   18.923924   23.017777 H          1 MOL1         0.3682
       5    C1      19.032871   18.344563   23.283046 C.3        1 MOL1         0.0252
       6    H4      19.090635   17.878760   22.295816 H          1 MOL1         0.0971
       7    H5      18.770899   17.569731   24.008658 H          1 MOL1         0.0971
       8    C2      20.402082   18.950138   23.652948 C.3        1 MOL1        -0.1369
       9    H6      20.342455   19.385042   24.659398 H          1 MOL1         0.0997
      10    H7      21.140359   18.140830   23.720024 H          1 MOL1         0.0997
      11    C3      20.902919   20.030752   22.658751 C.3        1 MOL1        -0.1329
      12    H8      21.893596   20.377724   22.983356 H          1 MOL1         0.0997
      13    H9      20.247124   20.909831   22.716714 H          1 MOL1         0.0997
      14    C4      20.990005   19.565827   21.182507 C.3        1 MOL1        -0.1305
      15    H10     19.991565   19.304879   20.806315 H          1 MOL1         0.0997
      16    H11     21.332284   20.410589   20.568446 H          1 MOL1         0.0997
      17    C5      21.951940   18.374763   20.970643 C.3        1 MOL1        -0.2320
      18    H12     21.589712   17.469980   21.474390 H          1 MOL1         0.1008
      19    H13     22.046416   18.142146   19.902070 H          1 MOL1         0.1008
      20    H14     22.954649   18.604085   21.353977 H          1 MOL1         0.1008
@<TRIPOS>BOND
    1     1     2    1
    2     1     3    1
    3     1     4    1
    4     1     5    1
    5     5     6    1
    6     5     7    1
    7     5     8    1
    8     8     9    1
    9     8    10    1
   10     8    11    1
   11    11    12    1
   12    11    13    1
   13    11    14    1
   14    14    15    1
   15    14    16    1
   16    14    17    1
   17    17    18    1
   18    17    19    1
   19    17    20    1
@<TRIPOS>SUBSTRUCTURE
       1 MOL1            1 RESIDUE      1      MOL     
@<SCITEGIC>MOL_PROPERTY
VConf Rank
SciTegic.value.IntegerValue
492

@<SCITEGIC>MOL_PROPERTY
Conf_Id
SciTegic.value.IntegerValue
1

@<SCITEGIC>MOL_PROPERTY
Delta U+W
SciTegic.value.DoubleValue
1.032

@<SCITEGIC>MOL_PROPERTY
U+W
SciTegic.value.DoubleValue
-10.746

@<SCITEGIC>MOL_PROPERTY
Grad RMS
SciTegic.value.DoubleValue
0.000000

@<SCITEGIC>MOL_PROPERTY
U
SciTegic.value.DoubleValue
47.562

@<SCITEGIC>MOL_PROPERTY
W
SciTegic.value.DoubleValue
-58.308

@<SCITEGIC>MOL_PROPERTY
W(PB)
SciTegic.value.DoubleValue
-60.184

@<SCITEGIC>MOL_PROPERTY
W(SA)
SciTegic.value.DoubleValue
1.877

@<SCITEGIC>MOL_PROPERTY
Valence
SciTegic.value.DoubleValue
2.149

@<SCITEGIC>MOL_PROPERTY
Coulomb
SciTegic.value.DoubleValue
45.035

@<SCITEGIC>MOL_PROPERTY
VdW
SciTegic.value.DoubleValue
0.378

@<SCITEGIC>MOL_PROPERTY
VdW6
SciTegic.value.DoubleValue
-5.599

@<SCITEGIC>MOL_PROPERTY
VdW12
SciTegic.value.DoubleValue
5.978

@<SCITEGIC>MOL_PROPERTY
Bond
SciTegic.value.DoubleValue
0.185

@<SCITEGIC>MOL_PROPERTY
Angle
SciTegic.value.DoubleValue
0.935

@<SCITEGIC>MOL_PROPERTY
Pdih
SciTegic.value.DoubleValue
1.028

@<SCITEGIC>MOL_PROPERTY
Idih
SciTegic.value.DoubleValue
0.000

@<SCITEGIC>MOL_PROPERTY
Tether
SciTegic.value.DoubleValue
0.000

@<TRIPOS>MOLECULE
guest-s11_confgen4.mol2 : confsearch ligand conformer 493
          20          19           1
SMALL
USER_CHARGES
 
@<TRIPOS>ATOM
       1    N1      20.383058   20.800210   24.097945 N.4        1 MOL1        -0.5919
       2    H1      19.585408   21.430289   24.227734 H          1 MOL1         0.3682
       3    H2      20.156138   19.922372   24.573961 H          1 MOL1         0.3682
       4    H3      21.175650   21.215844   24.598337 H          1 MOL1         0.3682
       5    C1      20.696215   20.580944   22.630426 C.3        1 MOL1         0.0252
       6    H4      21.569401   19.929790   22.566667 H          1 MOL1         0.0971
       7    H5      20.968205   21.550468   22.204318 H          1 MOL1         0.0971
       8    C2      19.522007   19.985742   21.824395 C.3        1 MOL1        -0.1369
       9    H6      18.663677   20.663601   21.922355 H          1 MOL1         0.0997
      10    H7      19.779656   19.979894   20.757061 H          1 MOL1         0.0997
      11    C3      19.088946   18.560868   22.263158 C.3        1 MOL1        -0.1329
      12    H8      18.045949   18.414839   21.949699 H          1 MOL1         0.0997
      13    H9      19.078993   18.478810   23.357641 H          1 MOL1         0.0997
      14    C4      19.921910   17.404263   21.652856 C.3        1 MOL1        -0.1305
      15    H10     19.466202   16.452457   21.960007 H          1 MOL1         0.0997
      16    H11     19.850045   17.434026   20.556621 H          1 MOL1         0.0997
      17    C5      21.409131   17.392887   22.069960 C.3        1 MOL1        -0.2320
      18    H12     21.518951   17.478265   23.158725 H          1 MOL1         0.1008
      19    H13     21.886022   16.454796   21.757725 H          1 MOL1         0.1008
      20    H14     21.963723   18.210396   21.594397 H          1 MOL1         0.1008
@<TRIPOS>BOND
    1     1     2    1
    2     1     3    1
    3     1     4    1
    4     1     5    1
    5     5     6    1
    6     5     7    1
    7     5     8    1
    8     8     9    1
    9     8    10    1
   10     8    11    1
   11    11    12    1
   12    11    13    1
   13    11    14    1
   14    14    15    1
   15    14    16    1
   16    14    17    1
   17    17    18    1
   18    17    19    1
   19    17    20    1
@<TRIPOS>SUBSTRUCTURE
       1 MOL1            1 RESIDUE      1      MOL     
@<SCITEGIC>MOL_PROPERTY
VConf Rank
SciTegic.value.IntegerValue
493

@<SCITEGIC>MOL_PROPERTY
Conf_Id
SciTegic.value.IntegerValue
80

@<SCITEGIC>MOL_PROPERTY
Delta U+W
SciTegic.value.DoubleValue
2.920

@<SCITEGIC>MOL_PROPERTY
U+W
SciTegic.value.DoubleValue
-8.857

@<SCITEGIC>MOL_PROPERTY
Grad RMS
SciTegic.value.DoubleValue
0.000000

@<SCITEGIC>MOL_PROPERTY
U
SciTegic.value.DoubleValue
49.434

@<SCITEGIC>MOL_PROPERTY
W
SciTegic.value.DoubleValue
-58.292

@<SCITEGIC>MOL_PROPERTY
W(PB)
SciTegic.value.DoubleValue
-60.170

@<SCITEGIC>MOL_PROPERTY
W(SA)
SciTegic.value.DoubleValue
1.879

@<SCITEGIC>MOL_PROPERTY
Valence
SciTegic.value.DoubleValue
3.798

@<SCITEGIC>MOL_PROPERTY
Coulomb
SciTegic.value.DoubleValue
45.253

@<SCITEGIC>MOL_PROPERTY
VdW
SciTegic.value.DoubleValue
0.384

@<SCITEGIC>MOL_PROPERTY
VdW6
SciTegic.value.DoubleValue
-5.595

@<SCITEGIC>MOL_PROPERTY
VdW12
SciTegic.value.DoubleValue
5.979

@<SCITEGIC>MOL_PROPERTY
Bond
SciTegic.value.DoubleValue
0.198

@<SCITEGIC>MOL_PROPERTY
Angle
SciTegic.value.DoubleValue
1.368

@<SCITEGIC>MOL_PROPERTY
Pdih
SciTegic.value.DoubleValue
2.231

@<SCITEGIC>MOL_PROPERTY
Idih
SciTegic.value.DoubleValue
0.000

@<SCITEGIC>MOL_PROPERTY
Tether
SciTegic.value.DoubleValue
0.000

@<TRIPOS>MOLECULE
guest-s11_confgen4.mol2 : confsearch ligand conformer 494
          20          19           1
SMALL
USER_CHARGES
 
@<TRIPOS>ATOM
       1    N1      20.214741   21.531256   22.349811 N.4        1 MOL1        -0.5919
       2    H1      19.461098   22.057731   22.802511 H          1 MOL1         0.3682
       3    H2      20.945465   22.207647   22.105096 H          1 MOL1         0.3682
       4    H3      19.841152   21.163423   21.470142 H          1 MOL1         0.3682
       5    C1      20.746372   20.426333   23.242151 C.3        1 MOL1         0.0252
       6    H4      21.163653   20.898235   24.135856 H          1 MOL1         0.0971
       7    H5      21.561596   19.930103   22.713302 H          1 MOL1         0.0971
       8    C2      19.676170   19.397920   23.666135 C.3        1 MOL1        -0.1369
       9    H6      20.104914   18.712188   24.408811 H          1 MOL1         0.0997
      10    H7      18.872223   19.937287   24.184375 H          1 MOL1         0.0997
      11    C3      19.060799   18.581359   22.497857 C.3        1 MOL1        -0.1329
      12    H8      18.863513   19.229255   21.634127 H          1 MOL1         0.0997
      13    H9      18.075454   18.219511   22.822795 H          1 MOL1         0.0997
      14    C4      19.885004   17.344920   22.055201 C.3        1 MOL1        -0.1305
      15    H10     19.997874   16.652463   22.901102 H          1 MOL1         0.0997
      16    H11     19.308003   16.801032   21.294147 H          1 MOL1         0.0997
      17    C5      21.276852   17.674748   21.472191 C.3        1 MOL1        -0.2320
      18    H12     21.967838   18.011684   22.253897 H          1 MOL1         0.1008
      19    H13     21.719788   16.781563   21.012890 H          1 MOL1         0.1008
      20    H14     21.212021   18.451587   20.699483 H          1 MOL1         0.1008
@<TRIPOS>BOND
    1     1     2    1
    2     1     3    1
    3     1     4    1
    4     1     5    1
    5     5     6    1
    6     5     7    1
    7     5     8    1
    8     8     9    1
    9     8    10    1
   10     8    11    1
   11    11    12    1
   12    11    13    1
   13    11    14    1
   14    14    15    1
   15    14    16    1
   16    14    17    1
   17    17    18    1
   18    17    19    1
   19    17    20    1
@<TRIPOS>SUBSTRUCTURE
       1 MOL1            1 RESIDUE      1      MOL     
@<SCITEGIC>MOL_PROPERTY
VConf Rank
SciTegic.value.IntegerValue
494

@<SCITEGIC>MOL_PROPERTY
Conf_Id
SciTegic.value.IntegerValue
65

@<SCITEGIC>MOL_PROPERTY
Delta U+W
SciTegic.value.DoubleValue
2.949

@<SCITEGIC>MOL_PROPERTY
U+W
SciTegic.value.DoubleValue
-8.829

@<SCITEGIC>MOL_PROPERTY
Grad RMS
SciTegic.value.DoubleValue
0.000000

@<SCITEGIC>MOL_PROPERTY
U
SciTegic.value.DoubleValue
49.435

@<SCITEGIC>MOL_PROPERTY
W
SciTegic.value.DoubleValue
-58.263

@<SCITEGIC>MOL_PROPERTY
W(PB)
SciTegic.value.DoubleValue
-60.125

@<SCITEGIC>MOL_PROPERTY
W(SA)
SciTegic.value.DoubleValue
1.862

@<SCITEGIC>MOL_PROPERTY
Valence
SciTegic.value.DoubleValue
3.797

@<SCITEGIC>MOL_PROPERTY
Coulomb
SciTegic.value.DoubleValue
45.253

@<SCITEGIC>MOL_PROPERTY
VdW
SciTegic.value.DoubleValue
0.384

@<SCITEGIC>MOL_PROPERTY
VdW6
SciTegic.value.DoubleValue
-5.596

@<SCITEGIC>MOL_PROPERTY
VdW12
SciTegic.value.DoubleValue
5.980

@<SCITEGIC>MOL_PROPERTY
Bond
SciTegic.value.DoubleValue
0.198

@<SCITEGIC>MOL_PROPERTY
Angle
SciTegic.value.DoubleValue
1.369

@<SCITEGIC>MOL_PROPERTY
Pdih
SciTegic.value.DoubleValue
2.230

@<SCITEGIC>MOL_PROPERTY
Idih
SciTegic.value.DoubleValue
0.000

@<SCITEGIC>MOL_PROPERTY
Tether
SciTegic.value.DoubleValue
0.000

@<TRIPOS>MOLECULE
guest-s11_confgen4.mol2 : confsearch ligand conformer 495
          20          19           1
SMALL
USER_CHARGES
 
@<TRIPOS>ATOM
       1    N1      21.324201   20.755339   22.136134 N.4        1 MOL1        -0.5919
       2    H1      21.463077   21.479757   21.423664 H          1 MOL1         0.3682
       3    H2      20.383348   20.881731   22.521552 H          1 MOL1         0.3682
       4    H3      21.991104   20.947369   22.890303 H          1 MOL1         0.3682
       5    C1      21.505690   19.361921   21.566043 C.3        1 MOL1         0.0252
       6    H4      22.526870   19.305523   21.179354 H          1 MOL1         0.0971
       7    H5      20.817534   19.234179   20.726207 H          1 MOL1         0.0971
       8    C2      21.293499   18.231852   22.593821 C.3        1 MOL1        -0.1369
       9    H6      21.832088   17.346117   22.231598 H          1 MOL1         0.0997
      10    H7      21.769159   18.501296   23.546163 H          1 MOL1         0.0997
      11    C3      19.814935   17.822523   22.830803 C.3        1 MOL1        -0.1329
      12    H8      19.816743   16.979867   23.536107 H          1 MOL1         0.0997
      13    H9      19.382645   17.425943   21.901656 H          1 MOL1         0.0997
      14    C4      18.901260   18.931853   23.411410 C.3        1 MOL1        -0.1305
      15    H10     18.179960   18.467099   24.098424 H          1 MOL1         0.0997
      16    H11     19.486372   19.629309   24.025790 H          1 MOL1         0.0997
      17    C5      18.099573   19.688748   22.325949 C.3        1 MOL1        -0.2320
      18    H12     18.744653   20.125284   21.555946 H          1 MOL1         0.1008
      19    H13     17.398192   19.011278   21.821549 H          1 MOL1         0.1008
      20    H14     17.510523   20.499232   22.774632 H          1 MOL1         0.1008
@<TRIPOS>BOND
    1     1     2    1
    2     1     3    1
    3     1     4    1
    4     1     5    1
    5     5     6    1
    6     5     7    1
    7     5     8    1
    8     8     9    1
    9     8    10    1
   10     8    11    1
   11    11    12    1
   12    11    13    1
   13    11    14    1
   14    14    15    1
   15    14    16    1
   16    14    17    1
   17    17    18    1
   18    17    19    1
   19    17    20    1
@<TRIPOS>SUBSTRUCTURE
       1 MOL1            1 RESIDUE      1      MOL     
@<SCITEGIC>MOL_PROPERTY
VConf Rank
SciTegic.value.IntegerValue
495

@<SCITEGIC>MOL_PROPERTY
Conf_Id
SciTegic.value.IntegerValue
77

@<SCITEGIC>MOL_PROPERTY
Delta U+W
SciTegic.value.DoubleValue
5.366

@<SCITEGIC>MOL_PROPERTY
U+W
SciTegic.value.DoubleValue
-6.412

@<SCITEGIC>MOL_PROPERTY
Grad RMS
SciTegic.value.DoubleValue
0.000000

@<SCITEGIC>MOL_PROPERTY
U
SciTegic.value.DoubleValue
51.542

@<SCITEGIC>MOL_PROPERTY
W
SciTegic.value.DoubleValue
-57.954

@<SCITEGIC>MOL_PROPERTY
W(PB)
SciTegic.value.DoubleValue
-59.811

@<SCITEGIC>MOL_PROPERTY
W(SA)
SciTegic.value.DoubleValue
1.857

@<SCITEGIC>MOL_PROPERTY
Valence
SciTegic.value.DoubleValue
5.347

@<SCITEGIC>MOL_PROPERTY
Coulomb
SciTegic.value.DoubleValue
45.870

@<SCITEGIC>MOL_PROPERTY
VdW
SciTegic.value.DoubleValue
0.325

@<SCITEGIC>MOL_PROPERTY
VdW6
SciTegic.value.DoubleValue
-6.161

@<SCITEGIC>MOL_PROPERTY
VdW12
SciTegic.value.DoubleValue
6.486

@<SCITEGIC>MOL_PROPERTY
Bond
SciTegic.value.DoubleValue
0.201

@<SCITEGIC>MOL_PROPERTY
Angle
SciTegic.value.DoubleValue
1.484

@<SCITEGIC>MOL_PROPERTY
Pdih
SciTegic.value.DoubleValue
3.662

@<SCITEGIC>MOL_PROPERTY
Idih
SciTegic.value.DoubleValue
0.000

@<SCITEGIC>MOL_PROPERTY
Tether
SciTegic.value.DoubleValue
0.000

@<TRIPOS>MOLECULE
guest-s11_confgen4.mol2 : confsearch ligand conformer 496
          20          19           1
SMALL
USER_CHARGES
 
@<TRIPOS>ATOM
       1    N1      19.408407   17.231435   22.590657 N.4        1 MOL1        -0.5919
       2    H1      19.232514   16.763744   21.695820 H          1 MOL1         0.3682
       3    H2      20.419020   17.384396   22.661301 H          1 MOL1         0.3682
       4    H3      19.146468   16.570049   23.329330 H          1 MOL1         0.3682
       5    C1      18.642488   18.535310   22.703963 C.3        1 MOL1         0.0252
       6    H4      18.813499   18.957334   23.697871 H          1 MOL1         0.0971
       7    H5      17.580374   18.290389   22.617661 H          1 MOL1         0.0971
       8    C2      19.009089   19.573278   21.623854 C.3        1 MOL1        -0.1369
       9    H6      19.106435   19.077009   20.649149 H          1 MOL1         0.0997
      10    H7      18.161247   20.263860   21.523499 H          1 MOL1         0.0997
      11    C3      20.275801   20.419446   21.922693 C.3        1 MOL1        -0.1329
      12    H8      20.120043   21.019090   22.830235 H          1 MOL1         0.0997
      13    H9      20.384763   21.146702   21.106143 H          1 MOL1         0.0997
      14    C4      21.599695   19.620983   22.033515 C.3        1 MOL1        -0.1305
      15    H10     21.556903   18.717377   21.410677 H          1 MOL1         0.0997
      16    H11     22.412211   20.230657   21.613545 H          1 MOL1         0.0997
      17    C5      21.977667   19.270494   23.492321 C.3        1 MOL1        -0.2320
      18    H12     22.889212   18.659334   23.519681 H          1 MOL1         0.1008
      19    H13     22.174866   20.183181   24.069762 H          1 MOL1         0.1008
      20    H14     21.185173   18.719800   24.010282 H          1 MOL1         0.1008
@<TRIPOS>BOND
    1     1     2    1
    2     1     3    1
    3     1     4    1
    4     1     5    1
    5     5     6    1
    6     5     7    1
    7     5     8    1
    8     8     9    1
    9     8    10    1
   10     8    11    1
   11    11    12    1
   12    11    13    1
   13    11    14    1
   14    14    15    1
   15    14    16    1
   16    14    17    1
   17    17    18    1
   18    17    19    1
   19    17    20    1
@<TRIPOS>SUBSTRUCTURE
       1 MOL1            1 RESIDUE      1      MOL     
@<SCITEGIC>MOL_PROPERTY
VConf Rank
SciTegic.value.IntegerValue
496

@<SCITEGIC>MOL_PROPERTY
Conf_Id
SciTegic.value.IntegerValue
67

@<SCITEGIC>MOL_PROPERTY
Delta U+W
SciTegic.value.DoubleValue
5.353

@<SCITEGIC>MOL_PROPERTY
U+W
SciTegic.value.DoubleValue
-6.425

@<SCITEGIC>MOL_PROPERTY
Grad RMS
SciTegic.value.DoubleValue
0.000000

@<SCITEGIC>MOL_PROPERTY
U
SciTegic.value.DoubleValue
51.541

@<SCITEGIC>MOL_PROPERTY
W
SciTegic.value.DoubleValue
-57.966

@<SCITEGIC>MOL_PROPERTY
W(PB)
SciTegic.value.DoubleValue
-59.821

@<SCITEGIC>MOL_PROPERTY
W(SA)
SciTegic.value.DoubleValue
1.855

@<SCITEGIC>MOL_PROPERTY
Valence
SciTegic.value.DoubleValue
5.347

@<SCITEGIC>MOL_PROPERTY
Coulomb
SciTegic.value.DoubleValue
45.870

@<SCITEGIC>MOL_PROPERTY
VdW
SciTegic.value.DoubleValue
0.325

@<SCITEGIC>MOL_PROPERTY
VdW6
SciTegic.value.DoubleValue
-6.161

@<SCITEGIC>MOL_PROPERTY
VdW12
SciTegic.value.DoubleValue
6.486

@<SCITEGIC>MOL_PROPERTY
Bond
SciTegic.value.DoubleValue
0.201

@<SCITEGIC>MOL_PROPERTY
Angle
SciTegic.value.DoubleValue
1.485

@<SCITEGIC>MOL_PROPERTY
Pdih
SciTegic.value.DoubleValue
3.662

@<SCITEGIC>MOL_PROPERTY
Idih
SciTegic.value.DoubleValue
0.000

@<SCITEGIC>MOL_PROPERTY
Tether
SciTegic.value.DoubleValue
0.000

@<TRIPOS>MOLECULE
guest-s11_confgen4.mol2 : confsearch ligand conformer 497
          20          19           1
SMALL
USER_CHARGES
 
@<TRIPOS>ATOM
       1    N1      21.680113   18.587104   19.688841 N.4        1 MOL1        -0.5919
       2    H1      22.037779   19.535336   19.536140 H          1 MOL1         0.3682
       3    H2      22.392708   17.940164   19.334898 H          1 MOL1         0.3682
       4    H3      20.855201   18.476390   19.090803 H          1 MOL1         0.3682
       5    C1      21.360974   18.329948   21.147783 C.3        1 MOL1         0.0252
       6    H4      22.287078   18.434977   21.719462 H          1 MOL1         0.0971
       7    H5      21.015627   17.296693   21.240702 H          1 MOL1         0.0971
       8    C2      20.293595   19.285308   21.711034 C.3        1 MOL1        -0.1369
       9    H6      20.637626   20.322434   21.601125 H          1 MOL1         0.0997
      10    H7      19.370541   19.188082   21.124019 H          1 MOL1         0.0997
      11    C3      19.997944   18.989998   23.198352 C.3        1 MOL1        -0.1329
      12    H8      20.924594   19.083045   23.781835 H          1 MOL1         0.0997
      13    H9      19.658944   17.950078   23.305301 H          1 MOL1         0.0997
      14    C4      18.927379   19.943502   23.774770 C.3        1 MOL1        -0.1305
      15    H10     19.263428   20.984891   23.671677 H          1 MOL1         0.0997
      16    H11     17.997930   19.852023   23.195285 H          1 MOL1         0.0997
      17    C5      18.635338   19.644813   25.260864 C.3        1 MOL1        -0.2320
      18    H12     19.539526   19.761745   25.872407 H          1 MOL1         0.1008
      19    H13     17.873448   20.331569   25.651932 H          1 MOL1         0.1008
      20    H14     18.264017   18.620087   25.392289 H          1 MOL1         0.1008
@<TRIPOS>BOND
    1     1     2    1
    2     1     3    1
    3     1     4    1
    4     1     5    1
    5     5     6    1
    6     5     7    1
    7     5     8    1
    8     8     9    1
    9     8    10    1
   10     8    11    1
   11    11    12    1
   12    11    13    1
   13    11    14    1
   14    14    15    1
   15    14    16    1
   16    14    17    1
   17    17    18    1
   18    17    19    1
   19    17    20    1
@<TRIPOS>SUBSTRUCTURE
       1 MOL1            1 RESIDUE      1      MOL     
@<SCITEGIC>MOL_PROPERTY
VConf Rank
SciTegic.value.IntegerValue
497

@<SCITEGIC>MOL_PROPERTY
Conf_Id
SciTegic.value.IntegerValue
72

@<SCITEGIC>MOL_PROPERTY
Delta U+W
SciTegic.value.DoubleValue
0.000

@<SCITEGIC>MOL_PROPERTY
U+W
SciTegic.value.DoubleValue
-11.778

@<SCITEGIC>MOL_PROPERTY
Grad RMS
SciTegic.value.DoubleValue
0.000000

@<SCITEGIC>MOL_PROPERTY
U
SciTegic.value.DoubleValue
45.772

@<SCITEGIC>MOL_PROPERTY
W
SciTegic.value.DoubleValue
-57.550

@<SCITEGIC>MOL_PROPERTY
W(PB)
SciTegic.value.DoubleValue
-59.511

@<SCITEGIC>MOL_PROPERTY
W(SA)
SciTegic.value.DoubleValue
1.961

@<SCITEGIC>MOL_PROPERTY
Valence
SciTegic.value.DoubleValue
1.299

@<SCITEGIC>MOL_PROPERTY
Coulomb
SciTegic.value.DoubleValue
44.177

@<SCITEGIC>MOL_PROPERTY
VdW
SciTegic.value.DoubleValue
0.297

@<SCITEGIC>MOL_PROPERTY
VdW6
SciTegic.value.DoubleValue
-3.490

@<SCITEGIC>MOL_PROPERTY
VdW12
SciTegic.value.DoubleValue
3.786

@<SCITEGIC>MOL_PROPERTY
Bond
SciTegic.value.DoubleValue
0.096

@<SCITEGIC>MOL_PROPERTY
Angle
SciTegic.value.DoubleValue
0.381

@<SCITEGIC>MOL_PROPERTY
Pdih
SciTegic.value.DoubleValue
0.822

@<SCITEGIC>MOL_PROPERTY
Idih
SciTegic.value.DoubleValue
0.000

@<SCITEGIC>MOL_PROPERTY
Tether
SciTegic.value.DoubleValue
0.000

@<TRIPOS>MOLECULE
guest-s11_confgen4.mol2 : confsearch ligand conformer 498
          20          19           1
SMALL
USER_CHARGES
 
@<TRIPOS>ATOM
       1    N1      18.618210   16.591454   22.845829 N.4        1 MOL1        -0.5919
       2    H1      18.751723   16.348448   21.859189 H          1 MOL1         0.3682
       3    H2      19.339584   16.095376   23.378641 H          1 MOL1         0.3682
       4    H3      17.715196   16.196898   23.129507 H          1 MOL1         0.3682
       5    C1      18.674838   18.088642   23.073418 C.3        1 MOL1         0.0252
       6    H4      18.494945   18.275438   24.135604 H          1 MOL1         0.0971
       7    H5      17.863624   18.547907   22.502005 H          1 MOL1         0.0971
       8    C2      20.018810   18.713574   22.658123 C.3        1 MOL1        -0.1369
       9    H6      20.832007   18.238432   23.222713 H          1 MOL1         0.0997
      10    H7      20.197204   18.504849   21.595732 H          1 MOL1         0.0997
      11    C3      20.032675   20.239890   22.909712 C.3        1 MOL1        -0.1329
      12    H8      19.776903   20.431457   23.961198 H          1 MOL1         0.0997
      13    H9      19.248439   20.721205   22.308966 H          1 MOL1         0.0997
      14    C4      21.397882   20.903798   22.606220 C.3        1 MOL1        -0.1305
      15    H10     21.351894   21.959218   22.909388 H          1 MOL1         0.0997
      16    H11     22.181507   20.441453   23.222698 H          1 MOL1         0.0997
      17    C5      21.799032   20.831077   21.115139 C.3        1 MOL1        -0.2320
      18    H12     21.018670   21.261884   20.474472 H          1 MOL1         0.1008
      19    H13     22.725374   21.392993   20.938806 H          1 MOL1         0.1008
      20    H14     21.975511   19.796903   20.794575 H          1 MOL1         0.1008
@<TRIPOS>BOND
    1     1     2    1
    2     1     3    1
    3     1     4    1
    4     1     5    1
    5     5     6    1
    6     5     7    1
    7     5     8    1
    8     8     9    1
    9     8    10    1
   10     8    11    1
   11    11    12    1
   12    11    13    1
   13    11    14    1
   14    14    15    1
   15    14    16    1
   16    14    17    1
   17    17    18    1
   18    17    19    1
   19    17    20    1
@<TRIPOS>SUBSTRUCTURE
       1 MOL1            1 RESIDUE      1      MOL     
@<SCITEGIC>MOL_PROPERTY
VConf Rank
SciTegic.value.IntegerValue
498

@<SCITEGIC>MOL_PROPERTY
Conf_Id
SciTegic.value.IntegerValue
42

@<SCITEGIC>MOL_PROPERTY
Delta U+W
SciTegic.value.DoubleValue
0.508

@<SCITEGIC>MOL_PROPERTY
U+W
SciTegic.value.DoubleValue
-11.270

@<SCITEGIC>MOL_PROPERTY
Grad RMS
SciTegic.value.DoubleValue
0.000000

@<SCITEGIC>MOL_PROPERTY
U
SciTegic.value.DoubleValue
46.486

@<SCITEGIC>MOL_PROPERTY
W
SciTegic.value.DoubleValue
-57.756

@<SCITEGIC>MOL_PROPERTY
W(PB)
SciTegic.value.DoubleValue
-59.705

@<SCITEGIC>MOL_PROPERTY
W(SA)
SciTegic.value.DoubleValue
1.949

@<SCITEGIC>MOL_PROPERTY
Valence
SciTegic.value.DoubleValue
1.806

@<SCITEGIC>MOL_PROPERTY
Coulomb
SciTegic.value.DoubleValue
44.248

@<SCITEGIC>MOL_PROPERTY
VdW
SciTegic.value.DoubleValue
0.433

@<SCITEGIC>MOL_PROPERTY
VdW6
SciTegic.value.DoubleValue
-4.089

@<SCITEGIC>MOL_PROPERTY
VdW12
SciTegic.value.DoubleValue
4.522

@<SCITEGIC>MOL_PROPERTY
Bond
SciTegic.value.DoubleValue
0.131

@<SCITEGIC>MOL_PROPERTY
Angle
SciTegic.value.DoubleValue
0.628

@<SCITEGIC>MOL_PROPERTY
Pdih
SciTegic.value.DoubleValue
1.047

@<SCITEGIC>MOL_PROPERTY
Idih
SciTegic.value.DoubleValue
0.000

@<SCITEGIC>MOL_PROPERTY
Tether
SciTegic.value.DoubleValue
0.000

@<TRIPOS>MOLECULE
guest-s11_confgen4.mol2 : confsearch ligand conformer 499
          20          19           1
SMALL
USER_CHARGES
 
@<TRIPOS>ATOM
       1    N1      18.249617   17.125583   23.769142 N.4        1 MOL1        -0.5919
       2    H1      17.393751   17.454809   23.311465 H          1 MOL1         0.3682
       3    H2      18.614552   16.351799   23.204860 H          1 MOL1         0.3682
       4    H3      17.969766   16.728596   24.672284 H          1 MOL1         0.3682
       5    C1      19.267373   18.236318   23.933528 C.3        1 MOL1         0.0252
       6    H4      20.136755   17.823520   24.452450 H          1 MOL1         0.0971
       7    H5      18.824095   19.008893   24.567664 H          1 MOL1         0.0971
       8    C2      19.709130   18.855386   22.595292 C.3        1 MOL1        -0.1369
       9    H6      20.135739   18.068402   21.960683 H          1 MOL1         0.0997
      10    H7      18.831012   19.254431   22.070427 H          1 MOL1         0.0997
      11    C3      20.744645   19.984295   22.810720 C.3        1 MOL1        -0.1329
      12    H8      21.642643   19.575504   23.294534 H          1 MOL1         0.0997
      13    H9      20.327769   20.723680   23.508766 H          1 MOL1         0.0997
      14    C4      21.146211   20.711938   21.504600 C.3        1 MOL1        -0.1305
      15    H10     20.253806   21.143032   21.029574 H          1 MOL1         0.0997
      16    H11     21.797893   21.559540   21.759199 H          1 MOL1         0.0997
      17    C5      21.883861   19.802185   20.495761 C.3        1 MOL1        -0.2320
      18    H12     21.230855   19.005775   20.117957 H          1 MOL1         0.1008
      19    H13     22.225595   20.385626   19.631026 H          1 MOL1         0.1008
      20    H14     22.765275   19.336102   20.954988 H          1 MOL1         0.1008
@<TRIPOS>BOND
    1     1     2    1
    2     1     3    1
    3     1     4    1
    4     1     5    1
    5     5     6    1
    6     5     7    1
    7     5     8    1
    8     8     9    1
    9     8    10    1
   10     8    11    1
   11    11    12    1
   12    11    13    1
   13    11    14    1
   14    14    15    1
   15    14    16    1
   16    14    17    1
   17    17    18    1
   18    17    19    1
   19    17    20    1
@<TRIPOS>SUBSTRUCTURE
       1 MOL1            1 RESIDUE      1      MOL     
@<SCITEGIC>MOL_PROPERTY
VConf Rank
SciTegic.value.IntegerValue
499

@<SCITEGIC>MOL_PROPERTY
Conf_Id
SciTegic.value.IntegerValue
41

@<SCITEGIC>MOL_PROPERTY
Delta U+W
SciTegic.value.DoubleValue
0.515

@<SCITEGIC>MOL_PROPERTY
U+W
SciTegic.value.DoubleValue
-11.263

@<SCITEGIC>MOL_PROPERTY
Grad RMS
SciTegic.value.DoubleValue
0.000000

@<SCITEGIC>MOL_PROPERTY
U
SciTegic.value.DoubleValue
46.486

@<SCITEGIC>MOL_PROPERTY
W
SciTegic.value.DoubleValue
-57.749

@<SCITEGIC>MOL_PROPERTY
W(PB)
SciTegic.value.DoubleValue
-59.685

@<SCITEGIC>MOL_PROPERTY
W(SA)
SciTegic.value.DoubleValue
1.936

@<SCITEGIC>MOL_PROPERTY
Valence
SciTegic.value.DoubleValue
1.806

@<SCITEGIC>MOL_PROPERTY
Coulomb
SciTegic.value.DoubleValue
44.248

@<SCITEGIC>MOL_PROPERTY
VdW
SciTegic.value.DoubleValue
0.433

@<SCITEGIC>MOL_PROPERTY
VdW6
SciTegic.value.DoubleValue
-4.089

@<SCITEGIC>MOL_PROPERTY
VdW12
SciTegic.value.DoubleValue
4.522

@<SCITEGIC>MOL_PROPERTY
Bond
SciTegic.value.DoubleValue
0.131

@<SCITEGIC>MOL_PROPERTY
Angle
SciTegic.value.DoubleValue
0.628

@<SCITEGIC>MOL_PROPERTY
Pdih
SciTegic.value.DoubleValue
1.047

@<SCITEGIC>MOL_PROPERTY
Idih
SciTegic.value.DoubleValue
0.000

@<SCITEGIC>MOL_PROPERTY
Tether
SciTegic.value.DoubleValue
0.000

@<TRIPOS>MOLECULE
guest-s11_confgen4.mol2 : confsearch ligand conformer 500
          20          19           1
SMALL
USER_CHARGES
 
@<TRIPOS>ATOM
       1    N1      20.077445   21.819727   23.094472 N.4        1 MOL1        -0.5919
       2    H1      20.278602   22.802213   22.880559 H          1 MOL1         0.3682
       3    H2      19.117925   21.637940   22.785907 H          1 MOL1         0.3682
       4    H3      20.089783   21.728741   24.115140 H          1 MOL1         0.3682
       5    C1      21.071014   20.884831   22.431937 C.3        1 MOL1         0.0252
       6    H4      22.070027   21.167466   22.774998 H          1 MOL1         0.0971
       7    H5      21.023863   21.048438   21.351914 H          1 MOL1         0.0971
       8    C2      20.828956   19.394443   22.741810 C.3        1 MOL1        -0.1369
       9    H6      21.662362   18.820925   22.317407 H          1 MOL1         0.0997
      10    H7      20.859558   19.236358   23.827979 H          1 MOL1         0.0997
      11    C3      19.487926   18.873533   22.166128 C.3        1 MOL1        -0.1329
      12    H8      19.473883   19.014119   21.076400 H          1 MOL1         0.0997
      13    H9      18.660523   19.474586   22.565810 H          1 MOL1         0.0997
      14    C4      19.209996   17.387286   22.499004 C.3        1 MOL1        -0.1305
      15    H10     19.209439   17.244007   23.588653 H          1 MOL1         0.0997
      16    H11     18.197269   17.133142   22.155877 H          1 MOL1         0.0997
      17    C5      20.214991   16.410642   21.846384 C.3        1 MOL1        -0.2320
      18    H12     21.226211   16.540998   22.250996 H          1 MOL1         0.1008
      19    H13     19.917181   15.370990   22.034480 H          1 MOL1         0.1008
      20    H14     20.257576   16.555366   20.759073 H          1 MOL1         0.1008
@<TRIPOS>BOND
    1     1     2    1
    2     1     3    1
    3     1     4    1
    4     1     5    1
    5     5     6    1
    6     5     7    1
    7     5     8    1
    8     8     9    1
    9     8    10    1
   10     8    11    1
   11    11    12    1
   12    11    13    1
   13    11    14    1
   14    14    15    1
   15    14    16    1
   16    14    17    1
   17    17    18    1
   18    17    19    1
   19    17    20    1
@<TRIPOS>SUBSTRUCTURE
       1 MOL1            1 RESIDUE      1      MOL     
@<SCITEGIC>MOL_PROPERTY
VConf Rank
SciTegic.value.IntegerValue
500

@<SCITEGIC>MOL_PROPERTY
Conf_Id
SciTegic.value.IntegerValue
33

@<SCITEGIC>MOL_PROPERTY
Delta U+W
SciTegic.value.DoubleValue
0.703

@<SCITEGIC>MOL_PROPERTY
U+W
SciTegic.value.DoubleValue
-11.075

@<SCITEGIC>MOL_PROPERTY
Grad RMS
SciTegic.value.DoubleValue
0.000000

@<SCITEGIC>MOL_PROPERTY
U
SciTegic.value.DoubleValue
47.080

@<SCITEGIC>MOL_PROPERTY
W
SciTegic.value.DoubleValue
-58.154

@<SCITEGIC>MOL_PROPERTY
W(PB)
SciTegic.value.DoubleValue
-60.053

@<SCITEGIC>MOL_PROPERTY
W(SA)
SciTegic.value.DoubleValue
1.899

@<SCITEGIC>MOL_PROPERTY
Valence
SciTegic.value.DoubleValue
1.943

@<SCITEGIC>MOL_PROPERTY
Coulomb
SciTegic.value.DoubleValue
44.572

@<SCITEGIC>MOL_PROPERTY
VdW
SciTegic.value.DoubleValue
0.565

@<SCITEGIC>MOL_PROPERTY
VdW6
SciTegic.value.DoubleValue
-4.575

@<SCITEGIC>MOL_PROPERTY
VdW12
SciTegic.value.DoubleValue
5.139

@<SCITEGIC>MOL_PROPERTY
Bond
SciTegic.value.DoubleValue
0.158

@<SCITEGIC>MOL_PROPERTY
Angle
SciTegic.value.DoubleValue
0.700

@<SCITEGIC>MOL_PROPERTY
Pdih
SciTegic.value.DoubleValue
1.085

@<SCITEGIC>MOL_PROPERTY
Idih
SciTegic.value.DoubleValue
0.000

@<SCITEGIC>MOL_PROPERTY
Tether
SciTegic.value.DoubleValue
0.000

@<TRIPOS>MOLECULE
guest-s11_confgen4.mol2 : confsearch ligand conformer 501
          20          19           1
SMALL
USER_CHARGES
 
@<TRIPOS>ATOM
       1    N1      18.255075   18.688162   24.432895 N.4        1 MOL1        -0.5919
       2    H1      17.721219   18.066447   25.049312 H          1 MOL1         0.3682
       3    H2      18.343825   19.585575   24.919687 H          1 MOL1         0.3682
       4    H3      17.679033   18.850279   23.601732 H          1 MOL1         0.3682
       5    C1      19.607976   18.102056   24.077509 C.3        1 MOL1         0.0252
       6    H4      19.442989   17.140153   23.584595 H          1 MOL1         0.0971
       7    H5      20.143833   17.917100   25.012523 H          1 MOL1         0.0971
       8    C2      20.463336   19.009257   23.171304 C.3        1 MOL1        -0.1369
       9    H6      20.612661   19.980490   23.661304 H          1 MOL1         0.0997
      10    H7      21.455354   18.551064   23.073487 H          1 MOL1         0.0997
      11    C3      19.839435   19.212151   21.767488 C.3        1 MOL1        -0.1329
      12    H8      18.832482   19.637042   21.872959 H          1 MOL1         0.0997
      13    H9      19.713908   18.238212   21.274383 H          1 MOL1         0.0997
      14    C4      20.666457   20.150492   20.855060 C.3        1 MOL1        -0.1305
      15    H10     20.101012   20.329979   19.929858 H          1 MOL1         0.0997
      16    H11     20.783279   21.130796   21.337993 H          1 MOL1         0.0997
      17    C5      22.056379   19.583715   20.485401 C.3        1 MOL1        -0.2320
      18    H12     21.969086   18.589175   20.029030 H          1 MOL1         0.1008
      19    H13     22.559104   20.240462   19.763669 H          1 MOL1         0.1008
      20    H14     22.707010   19.503129   21.364865 H          1 MOL1         0.1008
@<TRIPOS>BOND
    1     1     2    1
    2     1     3    1
    3     1     4    1
    4     1     5    1
    5     5     6    1
    6     5     7    1
    7     5     8    1
    8     8     9    1
    9     8    10    1
   10     8    11    1
   11    11    12    1
   12    11    13    1
   13    11    14    1
   14    14    15    1
   15    14    16    1
   16    14    17    1
   17    17    18    1
   18    17    19    1
   19    17    20    1
@<TRIPOS>SUBSTRUCTURE
       1 MOL1            1 RESIDUE      1      MOL     
@<SCITEGIC>MOL_PROPERTY
VConf Rank
SciTegic.value.IntegerValue
501

@<SCITEGIC>MOL_PROPERTY
Conf_Id
SciTegic.value.IntegerValue
24

@<SCITEGIC>MOL_PROPERTY
Delta U+W
SciTegic.value.DoubleValue
0.847

@<SCITEGIC>MOL_PROPERTY
U+W
SciTegic.value.DoubleValue
-10.931

@<SCITEGIC>MOL_PROPERTY
Grad RMS
SciTegic.value.DoubleValue
0.000000

@<SCITEGIC>MOL_PROPERTY
U
SciTegic.value.DoubleValue
47.080

@<SCITEGIC>MOL_PROPERTY
W
SciTegic.value.DoubleValue
-58.011

@<SCITEGIC>MOL_PROPERTY
W(PB)
SciTegic.value.DoubleValue
-59.914

@<SCITEGIC>MOL_PROPERTY
W(SA)
SciTegic.value.DoubleValue
1.903

@<SCITEGIC>MOL_PROPERTY
Valence
SciTegic.value.DoubleValue
1.943

@<SCITEGIC>MOL_PROPERTY
Coulomb
SciTegic.value.DoubleValue
44.572

@<SCITEGIC>MOL_PROPERTY
VdW
SciTegic.value.DoubleValue
0.565

@<SCITEGIC>MOL_PROPERTY
VdW6
SciTegic.value.DoubleValue
-4.575

@<SCITEGIC>MOL_PROPERTY
VdW12
SciTegic.value.DoubleValue
5.140

@<SCITEGIC>MOL_PROPERTY
Bond
SciTegic.value.DoubleValue
0.158

@<SCITEGIC>MOL_PROPERTY
Angle
SciTegic.value.DoubleValue
0.700

@<SCITEGIC>MOL_PROPERTY
Pdih
SciTegic.value.DoubleValue
1.085

@<SCITEGIC>MOL_PROPERTY
Idih
SciTegic.value.DoubleValue
0.000

@<SCITEGIC>MOL_PROPERTY
Tether
SciTegic.value.DoubleValue
0.000

@<TRIPOS>MOLECULE
guest-s11_confgen4.mol2 : confsearch ligand conformer 502
          20          19           1
SMALL
USER_CHARGES
 
@<TRIPOS>ATOM
       1    N1      20.488433   21.849330   21.828290 N.4        1 MOL1        -0.5919
       2    H1      20.643266   22.633263   22.470914 H          1 MOL1         0.3682
       3    H2      21.390098   21.644587   21.386360 H          1 MOL1         0.3682
       4    H3      19.862006   22.188629   21.091558 H          1 MOL1         0.3682
       5    C1      19.919741   20.639715   22.542258 C.3        1 MOL1         0.0252
       6    H4      18.978225   20.936299   23.012326 H          1 MOL1         0.0971
       7    H5      20.622100   20.353518   23.329511 H          1 MOL1         0.0971
       8    C2      19.675660   19.442560   21.604244 C.3        1 MOL1        -0.1369
       9    H6      19.002125   19.752605   20.794317 H          1 MOL1         0.0997
      10    H7      20.618502   19.149815   21.124866 H          1 MOL1         0.0997
      11    C3      19.052348   18.226492   22.334078 C.3        1 MOL1        -0.1329
      12    H8      18.894735   17.417437   21.607544 H          1 MOL1         0.0997
      13    H9      18.053523   18.503310   22.699061 H          1 MOL1         0.0997
      14    C4      19.885381   17.684247   23.523721 C.3        1 MOL1        -0.1305
      15    H10     19.964680   18.446810   24.310478 H          1 MOL1         0.0997
      16    H11     19.343621   16.841305   23.975193 H          1 MOL1         0.0997
      17    C5      21.298463   17.207436   23.117695 C.3        1 MOL1        -0.2320
      18    H12     21.810183   16.748825   23.973688 H          1 MOL1         0.1008
      19    H13     21.247581   16.458558   22.316716 H          1 MOL1         0.1008
      20    H14     21.920608   18.041550   22.770097 H          1 MOL1         0.1008
@<TRIPOS>BOND
    1     1     2    1
    2     1     3    1
    3     1     4    1
    4     1     5    1
    5     5     6    1
    6     5     7    1
    7     5     8    1
    8     8     9    1
    9     8    10    1
   10     8    11    1
   11    11    12    1
   12    11    13    1
   13    11    14    1
   14    14    15    1
   15    14    16    1
   16    14    17    1
   17    17    18    1
   18    17    19    1
   19    17    20    1
@<TRIPOS>SUBSTRUCTURE
       1 MOL1            1 RESIDUE      1      MOL     
@<SCITEGIC>MOL_PROPERTY
VConf Rank
SciTegic.value.IntegerValue
502

@<SCITEGIC>MOL_PROPERTY
Conf_Id
SciTegic.value.IntegerValue
64

@<SCITEGIC>MOL_PROPERTY
Delta U+W
SciTegic.value.DoubleValue
0.707

@<SCITEGIC>MOL_PROPERTY
U+W
SciTegic.value.DoubleValue
-11.070

@<SCITEGIC>MOL_PROPERTY
Grad RMS
SciTegic.value.DoubleValue
0.000000

@<SCITEGIC>MOL_PROPERTY
U
SciTegic.value.DoubleValue
47.077

@<SCITEGIC>MOL_PROPERTY
W
SciTegic.value.DoubleValue
-58.148

@<SCITEGIC>MOL_PROPERTY
W(PB)
SciTegic.value.DoubleValue
-60.054

@<SCITEGIC>MOL_PROPERTY
W(SA)
SciTegic.value.DoubleValue
1.906

@<SCITEGIC>MOL_PROPERTY
Valence
SciTegic.value.DoubleValue
2.039

@<SCITEGIC>MOL_PROPERTY
Coulomb
SciTegic.value.DoubleValue
44.655

@<SCITEGIC>MOL_PROPERTY
VdW
SciTegic.value.DoubleValue
0.383

@<SCITEGIC>MOL_PROPERTY
VdW6
SciTegic.value.DoubleValue
-4.912

@<SCITEGIC>MOL_PROPERTY
VdW12
SciTegic.value.DoubleValue
5.295

@<SCITEGIC>MOL_PROPERTY
Bond
SciTegic.value.DoubleValue
0.159

@<SCITEGIC>MOL_PROPERTY
Angle
SciTegic.value.DoubleValue
0.856

@<SCITEGIC>MOL_PROPERTY
Pdih
SciTegic.value.DoubleValue
1.024

@<SCITEGIC>MOL_PROPERTY
Idih
SciTegic.value.DoubleValue
0.000

@<SCITEGIC>MOL_PROPERTY
Tether
SciTegic.value.DoubleValue
0.000

@<TRIPOS>MOLECULE
guest-s11_confgen4.mol2 : confsearch ligand conformer 503
          20          19           1
SMALL
USER_CHARGES
 
@<TRIPOS>ATOM
       1    N1      18.799676   17.727911   24.438497 N.4        1 MOL1        -0.5919
       2    H1      18.952948   18.082024   25.387929 H          1 MOL1         0.3682
       3    H2      17.913537   18.123332   24.108919 H          1 MOL1         0.3682
       4    H3      18.662170   16.714857   24.517873 H          1 MOL1         0.3682
       5    C1      19.950992   18.069287   23.514234 C.3        1 MOL1         0.0252
       6    H4      19.734274   17.636722   22.533976 H          1 MOL1         0.0971
       7    H5      20.853251   17.593827   23.908248 H          1 MOL1         0.0971
       8    C2      20.184249   19.585235   23.372414 C.3        1 MOL1        -0.1369
       9    H6      19.276032   20.064784   22.985596 H          1 MOL1         0.0997
      10    H7      20.359724   20.016039   24.367088 H          1 MOL1         0.0997
      11    C3      21.391021   19.923486   22.461764 C.3        1 MOL1        -0.1329
      12    H8      22.309072   19.542515   22.930312 H          1 MOL1         0.0997
      13    H9      21.506764   21.015111   22.414622 H          1 MOL1         0.0997
      14    C4      21.296488   19.361093   21.020237 C.3        1 MOL1        -0.1305
      15    H10     22.207255   19.643474   20.473750 H          1 MOL1         0.0997
      16    H11     21.286592   18.262802   21.041115 H          1 MOL1         0.0997
      17    C5      20.066959   19.877196   20.238634 C.3        1 MOL1        -0.2320
      18    H12     20.042434   20.974492   20.220822 H          1 MOL1         0.1008
      19    H13     20.096719   19.525411   19.199275 H          1 MOL1         0.1008
      20    H14     19.129060   19.519034   20.681016 H          1 MOL1         0.1008
@<TRIPOS>BOND
    1     1     2    1
    2     1     3    1
    3     1     4    1
    4     1     5    1
    5     5     6    1
    6     5     7    1
    7     5     8    1
    8     8     9    1
    9     8    10    1
   10     8    11    1
   11    11    12    1
   12    11    13    1
   13    11    14    1
   14    14    15    1
   15    14    16    1
   16    14    17    1
   17    17    18    1
   18    17    19    1
   19    17    20    1
@<TRIPOS>SUBSTRUCTURE
       1 MOL1            1 RESIDUE      1      MOL     
@<SCITEGIC>MOL_PROPERTY
VConf Rank
SciTegic.value.IntegerValue
503

@<SCITEGIC>MOL_PROPERTY
Conf_Id
SciTegic.value.IntegerValue
22

@<SCITEGIC>MOL_PROPERTY
Delta U+W
SciTegic.value.DoubleValue
0.731

@<SCITEGIC>MOL_PROPERTY
U+W
SciTegic.value.DoubleValue
-11.047

@<SCITEGIC>MOL_PROPERTY
Grad RMS
SciTegic.value.DoubleValue
0.000000

@<SCITEGIC>MOL_PROPERTY
U
SciTegic.value.DoubleValue
47.078

@<SCITEGIC>MOL_PROPERTY
W
SciTegic.value.DoubleValue
-58.125

@<SCITEGIC>MOL_PROPERTY
W(PB)
SciTegic.value.DoubleValue
-60.031

@<SCITEGIC>MOL_PROPERTY
W(SA)
SciTegic.value.DoubleValue
1.906

@<SCITEGIC>MOL_PROPERTY
Valence
SciTegic.value.DoubleValue
2.039

@<SCITEGIC>MOL_PROPERTY
Coulomb
SciTegic.value.DoubleValue
44.655

@<SCITEGIC>MOL_PROPERTY
VdW
SciTegic.value.DoubleValue
0.383

@<SCITEGIC>MOL_PROPERTY
VdW6
SciTegic.value.DoubleValue
-4.913

@<SCITEGIC>MOL_PROPERTY
VdW12
SciTegic.value.DoubleValue
5.296

@<SCITEGIC>MOL_PROPERTY
Bond
SciTegic.value.DoubleValue
0.159

@<SCITEGIC>MOL_PROPERTY
Angle
SciTegic.value.DoubleValue
0.856

@<SCITEGIC>MOL_PROPERTY
Pdih
SciTegic.value.DoubleValue
1.024

@<SCITEGIC>MOL_PROPERTY
Idih
SciTegic.value.DoubleValue
0.000

@<SCITEGIC>MOL_PROPERTY
Tether
SciTegic.value.DoubleValue
0.000

@<TRIPOS>MOLECULE
guest-s11_confgen4.mol2 : confsearch ligand conformer 504
          20          19           1
SMALL
USER_CHARGES
 
@<TRIPOS>ATOM
       1    N1      19.688145   17.750189   24.780120 N.4        1 MOL1        -0.5919
       2    H1      20.618574   17.712373   25.208146 H          1 MOL1         0.3682
       3    H2      19.072573   18.235605   25.440236 H          1 MOL1         0.3682
       4    H3      19.351119   16.783908   24.715253 H          1 MOL1         0.3682
       5    C1      19.714863   18.429803   23.425860 C.3        1 MOL1         0.0252
       6    H4      18.700829   18.410479   23.017500 H          1 MOL1         0.0971
       7    H5      20.364050   17.842170   22.772783 H          1 MOL1         0.0971
       8    C2      20.221971   19.881562   23.488382 C.3        1 MOL1        -0.1369
       9    H6      19.635092   20.428506   24.238281 H          1 MOL1         0.0997
      10    H7      21.261654   19.890715   23.841598 H          1 MOL1         0.0997
      11    C3      20.123874   20.639917   22.140352 C.3        1 MOL1        -0.1329
      12    H8      20.423431   21.680914   22.325127 H          1 MOL1         0.0997
      13    H9      19.077804   20.687053   21.807387 H          1 MOL1         0.0997
      14    C4      21.021402   20.077281   21.007623 C.3        1 MOL1        -0.1305
      15    H10     21.277683   20.902825   20.328727 H          1 MOL1         0.0997
      16    H11     21.975105   19.718579   21.419357 H          1 MOL1         0.0997
      17    C5      20.348164   18.966556   20.167459 C.3        1 MOL1        -0.2320
      18    H12     20.142545   18.066622   20.756284 H          1 MOL1         0.1008
      19    H13     19.400440   19.317061   19.738543 H          1 MOL1         0.1008
      20    H14     20.999291   18.670495   19.334774 H          1 MOL1         0.1008
@<TRIPOS>BOND
    1     1     2    1
    2     1     3    1
    3     1     4    1
    4     1     5    1
    5     5     6    1
    6     5     7    1
    7     5     8    1
    8     8     9    1
    9     8    10    1
   10     8    11    1
   11    11    12    1
   12    11    13    1
   13    11    14    1
   14    14    15    1
   15    14    16    1
   16    14    17    1
   17    17    18    1
   18    17    19    1
   19    17    20    1
@<TRIPOS>SUBSTRUCTURE
       1 MOL1            1 RESIDUE      1      MOL     
@<SCITEGIC>MOL_PROPERTY
VConf Rank
SciTegic.value.IntegerValue
504

@<SCITEGIC>MOL_PROPERTY
Conf_Id
SciTegic.value.IntegerValue
61

@<SCITEGIC>MOL_PROPERTY
Delta U+W
SciTegic.value.DoubleValue
2.669

@<SCITEGIC>MOL_PROPERTY
U+W
SciTegic.value.DoubleValue
-9.108

@<SCITEGIC>MOL_PROPERTY
Grad RMS
SciTegic.value.DoubleValue
0.000000

@<SCITEGIC>MOL_PROPERTY
U
SciTegic.value.DoubleValue
48.916

@<SCITEGIC>MOL_PROPERTY
W
SciTegic.value.DoubleValue
-58.025

@<SCITEGIC>MOL_PROPERTY
W(PB)
SciTegic.value.DoubleValue
-59.935

@<SCITEGIC>MOL_PROPERTY
W(SA)
SciTegic.value.DoubleValue
1.911

@<SCITEGIC>MOL_PROPERTY
Valence
SciTegic.value.DoubleValue
3.785

@<SCITEGIC>MOL_PROPERTY
Coulomb
SciTegic.value.DoubleValue
44.716

@<SCITEGIC>MOL_PROPERTY
VdW
SciTegic.value.DoubleValue
0.415

@<SCITEGIC>MOL_PROPERTY
VdW6
SciTegic.value.DoubleValue
-4.836

@<SCITEGIC>MOL_PROPERTY
VdW12
SciTegic.value.DoubleValue
5.251

@<SCITEGIC>MOL_PROPERTY
Bond
SciTegic.value.DoubleValue
0.175

@<SCITEGIC>MOL_PROPERTY
Angle
SciTegic.value.DoubleValue
1.195

@<SCITEGIC>MOL_PROPERTY
Pdih
SciTegic.value.DoubleValue
2.415

@<SCITEGIC>MOL_PROPERTY
Idih
SciTegic.value.DoubleValue
0.000

@<SCITEGIC>MOL_PROPERTY
Tether
SciTegic.value.DoubleValue
0.000

@<TRIPOS>MOLECULE
guest-s11_confgen4.mol2 : confsearch ligand conformer 505
          20          19           1
SMALL
USER_CHARGES
 
@<TRIPOS>ATOM
       1    N1      21.341002   17.596454   21.118449 N.4        1 MOL1        -0.5919
       2    H1      21.877172   17.498104   20.249835 H          1 MOL1         0.3682
       3    H2      21.265947   16.660078   21.528166 H          1 MOL1         0.3682
       4    H3      20.395820   17.888314   20.856776 H          1 MOL1         0.3682
       5    C1      21.993655   18.577663   22.073356 C.3        1 MOL1         0.0252
       6    H4      22.100373   19.539979   21.565522 H          1 MOL1         0.0971
       7    H5      22.995618   18.195279   22.286459 H          1 MOL1         0.0971
       8    C2      21.237108   18.768858   23.404729 C.3        1 MOL1        -0.1369
       9    H6      20.890264   17.798252   23.783462 H          1 MOL1         0.0997
      10    H7      21.956132   19.141387   24.146415 H          1 MOL1         0.0997
      11    C3      20.059625   19.775293   23.338452 C.3        1 MOL1        -0.1329
      12    H8      20.434126   20.756031   23.013850 H          1 MOL1         0.0997
      13    H9      19.674299   19.917850   24.357610 H          1 MOL1         0.0997
      14    C4      18.893726   19.338890   22.420550 C.3        1 MOL1        -0.1305
      15    H10     19.220385   19.336338   21.373106 H          1 MOL1         0.0997
      16    H11     18.584889   18.314059   22.670116 H          1 MOL1         0.0997
      17    C5      17.680495   20.283954   22.554500 C.3        1 MOL1        -0.2320
      18    H12     16.866280   19.966418   21.890213 H          1 MOL1         0.1008
      19    H13     17.293511   20.287980   23.581850 H          1 MOL1         0.1008
      20    H14     17.950871   21.313848   22.287135 H          1 MOL1         0.1008
@<TRIPOS>BOND
    1     1     2    1
    2     1     3    1
    3     1     4    1
    4     1     5    1
    5     5     6    1
    6     5     7    1
    7     5     8    1
    8     8     9    1
    9     8    10    1
   10     8    11    1
   11    11    12    1
   12    11    13    1
   13    11    14    1
   14    14    15    1
   15    14    16    1
   16    14    17    1
   17    17    18    1
   18    17    19    1
   19    17    20    1
@<TRIPOS>SUBSTRUCTURE
       1 MOL1            1 RESIDUE      1      MOL     
@<SCITEGIC>MOL_PROPERTY
VConf Rank
SciTegic.value.IntegerValue
505

@<SCITEGIC>MOL_PROPERTY
Conf_Id
SciTegic.value.IntegerValue
69

@<SCITEGIC>MOL_PROPERTY
Delta U+W
SciTegic.value.DoubleValue
2.811

@<SCITEGIC>MOL_PROPERTY
U+W
SciTegic.value.DoubleValue
-8.967

@<SCITEGIC>MOL_PROPERTY
Grad RMS
SciTegic.value.DoubleValue
0.000000

@<SCITEGIC>MOL_PROPERTY
U
SciTegic.value.DoubleValue
49.216

@<SCITEGIC>MOL_PROPERTY
W
SciTegic.value.DoubleValue
-58.183

@<SCITEGIC>MOL_PROPERTY
W(PB)
SciTegic.value.DoubleValue
-60.064

@<SCITEGIC>MOL_PROPERTY
W(SA)
SciTegic.value.DoubleValue
1.881

@<SCITEGIC>MOL_PROPERTY
Valence
SciTegic.value.DoubleValue
2.929

@<SCITEGIC>MOL_PROPERTY
Coulomb
SciTegic.value.DoubleValue
46.006

@<SCITEGIC>MOL_PROPERTY
VdW
SciTegic.value.DoubleValue
0.281

@<SCITEGIC>MOL_PROPERTY
VdW6
SciTegic.value.DoubleValue
-4.909

@<SCITEGIC>MOL_PROPERTY
VdW12
SciTegic.value.DoubleValue
5.190

@<SCITEGIC>MOL_PROPERTY
Bond
SciTegic.value.DoubleValue
0.156

@<SCITEGIC>MOL_PROPERTY
Angle
SciTegic.value.DoubleValue
0.974

@<SCITEGIC>MOL_PROPERTY
Pdih
SciTegic.value.DoubleValue
1.799

@<SCITEGIC>MOL_PROPERTY
Idih
SciTegic.value.DoubleValue
0.000

@<SCITEGIC>MOL_PROPERTY
Tether
SciTegic.value.DoubleValue
0.000

@<TRIPOS>MOLECULE
guest-s11_confgen4.mol2 : confsearch ligand conformer 506
          20          19           1
SMALL
USER_CHARGES
 
@<TRIPOS>ATOM
       1    N1      20.474228   18.045970   24.387530 N.4        1 MOL1        -0.5919
       2    H1      20.936115   17.772694   23.516319 H          1 MOL1         0.3682
       3    H2      21.153040   18.585957   24.933361 H          1 MOL1         0.3682
       4    H3      20.288676   17.185073   24.912954 H          1 MOL1         0.3682
       5    C1      19.203233   18.833537   24.132819 C.3        1 MOL1         0.0252
       6    H4      18.774390   19.069938   25.110452 H          1 MOL1         0.0971
       7    H5      18.496220   18.191889   23.600126 H          1 MOL1         0.0971
       8    C2      19.414058   20.145506   23.348110 C.3        1 MOL1        -0.1369
       9    H6      18.565219   20.806269   23.568874 H          1 MOL1         0.0997
      10    H7      20.305839   20.667411   23.719803 H          1 MOL1         0.0997
      11    C3      19.491806   19.971167   21.809496 C.3        1 MOL1        -0.1329
      12    H8      19.524558   20.970489   21.353687 H          1 MOL1         0.0997
      13    H9      18.567233   19.500674   21.447189 H          1 MOL1         0.0997
      14    C4      20.711652   19.157719   21.316961 C.3        1 MOL1        -0.1305
      15    H10     21.632868   19.558365   21.762818 H          1 MOL1         0.0997
      16    H11     20.620783   18.112297   21.637409 H          1 MOL1         0.0997
      17    C5      20.833398   19.191139   19.778429 C.3        1 MOL1        -0.2320
      18    H12     20.966562   20.218185   19.414195 H          1 MOL1         0.1008
      19    H13     21.697404   18.601861   19.444818 H          1 MOL1         0.1008
      20    H14     19.936791   18.773243   19.302268 H          1 MOL1         0.1008
@<TRIPOS>BOND
    1     1     2    1
    2     1     3    1
    3     1     4    1
    4     1     5    1
    5     5     6    1
    6     5     7    1
    7     5     8    1
    8     8     9    1
    9     8    10    1
   10     8    11    1
   11    11    12    1
   12    11    13    1
   13    11    14    1
   14    14    15    1
   15    14    16    1
   16    14    17    1
   17    17    18    1
   18    17    19    1
   19    17    20    1
@<TRIPOS>SUBSTRUCTURE
       1 MOL1            1 RESIDUE      1      MOL     
@<SCITEGIC>MOL_PROPERTY
VConf Rank
SciTegic.value.IntegerValue
506

@<SCITEGIC>MOL_PROPERTY
Conf_Id
SciTegic.value.IntegerValue
26

@<SCITEGIC>MOL_PROPERTY
Delta U+W
SciTegic.value.DoubleValue
2.809

@<SCITEGIC>MOL_PROPERTY
U+W
SciTegic.value.DoubleValue
-8.969

@<SCITEGIC>MOL_PROPERTY
Grad RMS
SciTegic.value.DoubleValue
0.000000

@<SCITEGIC>MOL_PROPERTY
U
SciTegic.value.DoubleValue
49.216

@<SCITEGIC>MOL_PROPERTY
W
SciTegic.value.DoubleValue
-58.185

@<SCITEGIC>MOL_PROPERTY
W(PB)
SciTegic.value.DoubleValue
-60.088

@<SCITEGIC>MOL_PROPERTY
W(SA)
SciTegic.value.DoubleValue
1.903

@<SCITEGIC>MOL_PROPERTY
Valence
SciTegic.value.DoubleValue
2.929

@<SCITEGIC>MOL_PROPERTY
Coulomb
SciTegic.value.DoubleValue
46.006

@<SCITEGIC>MOL_PROPERTY
VdW
SciTegic.value.DoubleValue
0.281

@<SCITEGIC>MOL_PROPERTY
VdW6
SciTegic.value.DoubleValue
-4.909

@<SCITEGIC>MOL_PROPERTY
VdW12
SciTegic.value.DoubleValue
5.190

@<SCITEGIC>MOL_PROPERTY
Bond
SciTegic.value.DoubleValue
0.156

@<SCITEGIC>MOL_PROPERTY
Angle
SciTegic.value.DoubleValue
0.974

@<SCITEGIC>MOL_PROPERTY
Pdih
SciTegic.value.DoubleValue
1.799

@<SCITEGIC>MOL_PROPERTY
Idih
SciTegic.value.DoubleValue
0.000

@<SCITEGIC>MOL_PROPERTY
Tether
SciTegic.value.DoubleValue
0.000

@<TRIPOS>MOLECULE
guest-s11_confgen4.mol2 : confsearch ligand conformer 507
          20          19           1
SMALL
USER_CHARGES
 
@<TRIPOS>ATOM
       1    N1      18.906170   18.994972   24.543085 N.4        1 MOL1        -0.5919
       2    H1      19.465491   18.142232   24.448567 H          1 MOL1         0.3682
       3    H2      19.273788   19.510439   25.348808 H          1 MOL1         0.3682
       4    H3      17.953021   18.704194   24.784466 H          1 MOL1         0.3682
       5    C1      18.937625   19.829716   23.277695 C.3        1 MOL1         0.0252
       6    H4      18.298660   20.702302   23.438398 H          1 MOL1         0.0971
       7    H5      18.504000   19.236582   22.468317 H          1 MOL1         0.0971
       8    C2      20.351994   20.297624   22.879055 C.3        1 MOL1        -0.1369
       9    H6      20.273619   20.954324   22.003193 H          1 MOL1         0.0997
      10    H7      20.764591   20.920168   23.683940 H          1 MOL1         0.0997
      11    C3      21.337094   19.138449   22.574282 C.3        1 MOL1        -0.1329
      12    H8      21.538667   18.580323   23.498441 H          1 MOL1         0.0997
      13    H9      22.302259   19.565783   22.269255 H          1 MOL1         0.0997
      14    C4      20.857131   18.146990   21.483558 C.3        1 MOL1        -0.1305
      15    H10     21.616202   17.361015   21.365636 H          1 MOL1         0.0997
      16    H11     19.941875   17.635349   21.810707 H          1 MOL1         0.0997
      17    C5      20.615620   18.815372   20.111049 C.3        1 MOL1        -0.2320
      18    H12     21.511841   19.348647   19.768461 H          1 MOL1         0.1008
      19    H13     20.364718   18.060573   19.354602 H          1 MOL1         0.1008
      20    H14     19.784504   19.530339   20.151923 H          1 MOL1         0.1008
@<TRIPOS>BOND
    1     1     2    1
    2     1     3    1
    3     1     4    1
    4     1     5    1
    5     5     6    1
    6     5     7    1
    7     5     8    1
    8     8     9    1
    9     8    10    1
   10     8    11    1
   11    11    12    1
   12    11    13    1
   13    11    14    1
   14    14    15    1
   15    14    16    1
   16    14    17    1
   17    17    18    1
   18    17    19    1
   19    17    20    1
@<TRIPOS>SUBSTRUCTURE
       1 MOL1            1 RESIDUE      1      MOL     
@<SCITEGIC>MOL_PROPERTY
VConf Rank
SciTegic.value.IntegerValue
507

@<SCITEGIC>MOL_PROPERTY
Conf_Id
SciTegic.value.IntegerValue
2

@<SCITEGIC>MOL_PROPERTY
Delta U+W
SciTegic.value.DoubleValue
0.994

@<SCITEGIC>MOL_PROPERTY
U+W
SciTegic.value.DoubleValue
-10.784

@<SCITEGIC>MOL_PROPERTY
Grad RMS
SciTegic.value.DoubleValue
0.000000

@<SCITEGIC>MOL_PROPERTY
U
SciTegic.value.DoubleValue
47.562

@<SCITEGIC>MOL_PROPERTY
W
SciTegic.value.DoubleValue
-58.346

@<SCITEGIC>MOL_PROPERTY
W(PB)
SciTegic.value.DoubleValue
-60.221

@<SCITEGIC>MOL_PROPERTY
W(SA)
SciTegic.value.DoubleValue
1.875

@<SCITEGIC>MOL_PROPERTY
Valence
SciTegic.value.DoubleValue
2.149

@<SCITEGIC>MOL_PROPERTY
Coulomb
SciTegic.value.DoubleValue
45.034

@<SCITEGIC>MOL_PROPERTY
VdW
SciTegic.value.DoubleValue
0.378

@<SCITEGIC>MOL_PROPERTY
VdW6
SciTegic.value.DoubleValue
-5.599

@<SCITEGIC>MOL_PROPERTY
VdW12
SciTegic.value.DoubleValue
5.977

@<SCITEGIC>MOL_PROPERTY
Bond
SciTegic.value.DoubleValue
0.185

@<SCITEGIC>MOL_PROPERTY
Angle
SciTegic.value.DoubleValue
0.935

@<SCITEGIC>MOL_PROPERTY
Pdih
SciTegic.value.DoubleValue
1.028

@<SCITEGIC>MOL_PROPERTY
Idih
SciTegic.value.DoubleValue
0.000

@<SCITEGIC>MOL_PROPERTY
Tether
SciTegic.value.DoubleValue
0.000

@<TRIPOS>MOLECULE
guest-s11_confgen4.mol2 : confsearch ligand conformer 508
          20          19           1
SMALL
USER_CHARGES
 
@<TRIPOS>ATOM
       1    N1      20.021619   17.233587   20.909662 N.4        1 MOL1        -0.5919
       2    H1      19.087693   16.978724   20.573706 H          1 MOL1         0.3682
       3    H2      20.322641   18.053094   20.374187 H          1 MOL1         0.3682
       4    H3      20.649671   16.463003   20.658545 H          1 MOL1         0.3682
       5    C1      20.029673   17.504248   22.401531 C.3        1 MOL1         0.0252
       6    H4      21.055479   17.736558   22.699333 H          1 MOL1         0.0971
       7    H5      19.729784   16.583194   22.908714 H          1 MOL1         0.0971
       8    C2      19.092043   18.651915   22.828142 C.3        1 MOL1        -0.1369
       9    H6      18.060451   18.393389   22.554977 H          1 MOL1         0.0997
      10    H7      19.101481   18.728030   23.922971 H          1 MOL1         0.0997
      11    C3      19.455230   20.026629   22.207457 C.3        1 MOL1        -0.1329
      12    H8      18.757932   20.783514   22.592294 H          1 MOL1         0.0997
      13    H9      19.286108   19.991778   21.122842 H          1 MOL1         0.0997
      14    C4      20.907990   20.497140   22.474181 C.3        1 MOL1        -0.1305
      15    H10     21.623432   19.803019   22.012839 H          1 MOL1         0.0997
      16    H11     21.060788   21.463940   21.974381 H          1 MOL1         0.0997
      17    C5      21.234694   20.656508   23.976414 C.3        1 MOL1        -0.2320
      18    H12     21.206950   19.692340   24.499111 H          1 MOL1         0.1008
      19    H13     22.240843   21.074852   24.108851 H          1 MOL1         0.1008
      20    H14     20.522709   21.333814   24.465591 H          1 MOL1         0.1008
@<TRIPOS>BOND
    1     1     2    1
    2     1     3    1
    3     1     4    1
    4     1     5    1
    5     5     6    1
    6     5     7    1
    7     5     8    1
    8     8     9    1
    9     8    10    1
   10     8    11    1
   11    11    12    1
   12    11    13    1
   13    11    14    1
   14    14    15    1
   15    14    16    1
   16    14    17    1
   17    17    18    1
   18    17    19    1
   19    17    20    1
@<TRIPOS>SUBSTRUCTURE
       1 MOL1            1 RESIDUE      1      MOL     
@<SCITEGIC>MOL_PROPERTY
VConf Rank
SciTegic.value.IntegerValue
508

@<SCITEGIC>MOL_PROPERTY
Conf_Id
SciTegic.value.IntegerValue
1

@<SCITEGIC>MOL_PROPERTY
Delta U+W
SciTegic.value.DoubleValue
1.032

@<SCITEGIC>MOL_PROPERTY
U+W
SciTegic.value.DoubleValue
-10.746

@<SCITEGIC>MOL_PROPERTY
Grad RMS
SciTegic.value.DoubleValue
0.000000

@<SCITEGIC>MOL_PROPERTY
U
SciTegic.value.DoubleValue
47.562

@<SCITEGIC>MOL_PROPERTY
W
SciTegic.value.DoubleValue
-58.308

@<SCITEGIC>MOL_PROPERTY
W(PB)
SciTegic.value.DoubleValue
-60.184

@<SCITEGIC>MOL_PROPERTY
W(SA)
SciTegic.value.DoubleValue
1.877

@<SCITEGIC>MOL_PROPERTY
Valence
SciTegic.value.DoubleValue
2.149

@<SCITEGIC>MOL_PROPERTY
Coulomb
SciTegic.value.DoubleValue
45.035

@<SCITEGIC>MOL_PROPERTY
VdW
SciTegic.value.DoubleValue
0.378

@<SCITEGIC>MOL_PROPERTY
VdW6
SciTegic.value.DoubleValue
-5.599

@<SCITEGIC>MOL_PROPERTY
VdW12
SciTegic.value.DoubleValue
5.978

@<SCITEGIC>MOL_PROPERTY
Bond
SciTegic.value.DoubleValue
0.185

@<SCITEGIC>MOL_PROPERTY
Angle
SciTegic.value.DoubleValue
0.935

@<SCITEGIC>MOL_PROPERTY
Pdih
SciTegic.value.DoubleValue
1.028

@<SCITEGIC>MOL_PROPERTY
Idih
SciTegic.value.DoubleValue
0.000

@<SCITEGIC>MOL_PROPERTY
Tether
SciTegic.value.DoubleValue
0.000

@<TRIPOS>MOLECULE
guest-s11_confgen4.mol2 : confsearch ligand conformer 509
          20          19           1
SMALL
USER_CHARGES
 
@<TRIPOS>ATOM
       1    N1      21.959229   20.689549   22.593778 N.4        1 MOL1        -0.5919
       2    H1      21.722491   21.685356   22.544654 H          1 MOL1         0.3682
       3    H2      21.754121   20.376176   23.546885 H          1 MOL1         0.3682
       4    H3      22.974194   20.617921   22.467046 H          1 MOL1         0.3682
       5    C1      21.203996   19.878105   21.558917 C.3        1 MOL1         0.0252
       6    H4      21.525392   18.839085   21.646455 H          1 MOL1         0.0971
       7    H5      21.505834   20.241259   20.572744 H          1 MOL1         0.0971
       8    C2      19.668965   19.978372   21.686744 C.3        1 MOL1        -0.1369
       9    H6      19.388872   21.036875   21.603448 H          1 MOL1         0.0997
      10    H7      19.199234   19.475307   20.831234 H          1 MOL1         0.0997
      11    C3      19.088451   19.408096   23.008906 C.3        1 MOL1        -0.1329
      12    H8      18.115248   19.887535   23.183375 H          1 MOL1         0.0997
      13    H9      19.713776   19.697603   23.863234 H          1 MOL1         0.0997
      14    C4      18.857235   17.874960   23.017209 C.3        1 MOL1        -0.1305
      15    H10     18.361924   17.606582   23.960918 H          1 MOL1         0.0997
      16    H11     18.153805   17.601834   22.218228 H          1 MOL1         0.0997
      17    C5      20.142901   17.029763   22.880699 C.3        1 MOL1        -0.2320
      18    H12     20.912273   17.355740   23.592433 H          1 MOL1         0.1008
      19    H13     19.927620   15.972225   23.081188 H          1 MOL1         0.1008
      20    H14     20.553728   17.088419   21.865892 H          1 MOL1         0.1008
@<TRIPOS>BOND
    1     1     2    1
    2     1     3    1
    3     1     4    1
    4     1     5    1
    5     5     6    1
    6     5     7    1
    7     5     8    1
    8     8     9    1
    9     8    10    1
   10     8    11    1
   11    11    12    1
   12    11    13    1
   13    11    14    1
   14    14    15    1
   15    14    16    1
   16    14    17    1
   17    17    18    1
   18    17    19    1
   19    17    20    1
@<TRIPOS>SUBSTRUCTURE
       1 MOL1            1 RESIDUE      1      MOL     
@<SCITEGIC>MOL_PROPERTY
VConf Rank
SciTegic.value.IntegerValue
509

@<SCITEGIC>MOL_PROPERTY
Conf_Id
SciTegic.value.IntegerValue
80

@<SCITEGIC>MOL_PROPERTY
Delta U+W
SciTegic.value.DoubleValue
2.920

@<SCITEGIC>MOL_PROPERTY
U+W
SciTegic.value.DoubleValue
-8.857

@<SCITEGIC>MOL_PROPERTY
Grad RMS
SciTegic.value.DoubleValue
0.000000

@<SCITEGIC>MOL_PROPERTY
U
SciTegic.value.DoubleValue
49.434

@<SCITEGIC>MOL_PROPERTY
W
SciTegic.value.DoubleValue
-58.292

@<SCITEGIC>MOL_PROPERTY
W(PB)
SciTegic.value.DoubleValue
-60.170

@<SCITEGIC>MOL_PROPERTY
W(SA)
SciTegic.value.DoubleValue
1.879

@<SCITEGIC>MOL_PROPERTY
Valence
SciTegic.value.DoubleValue
3.798

@<SCITEGIC>MOL_PROPERTY
Coulomb
SciTegic.value.DoubleValue
45.253

@<SCITEGIC>MOL_PROPERTY
VdW
SciTegic.value.DoubleValue
0.384

@<SCITEGIC>MOL_PROPERTY
VdW6
SciTegic.value.DoubleValue
-5.595

@<SCITEGIC>MOL_PROPERTY
VdW12
SciTegic.value.DoubleValue
5.979

@<SCITEGIC>MOL_PROPERTY
Bond
SciTegic.value.DoubleValue
0.198

@<SCITEGIC>MOL_PROPERTY
Angle
SciTegic.value.DoubleValue
1.368

@<SCITEGIC>MOL_PROPERTY
Pdih
SciTegic.value.DoubleValue
2.231

@<SCITEGIC>MOL_PROPERTY
Idih
SciTegic.value.DoubleValue
0.000

@<SCITEGIC>MOL_PROPERTY
Tether
SciTegic.value.DoubleValue
0.000

@<TRIPOS>MOLECULE
guest-s11_confgen4.mol2 : confsearch ligand conformer 510
          20          19           1
SMALL
USER_CHARGES
 
@<TRIPOS>ATOM
       1    N1      18.509991   18.931077   24.076749 N.4        1 MOL1        -0.5919
       2    H1      17.687165   19.540170   24.031458 H          1 MOL1         0.3682
       3    H2      18.283238   18.171762   24.727418 H          1 MOL1         0.3682
       4    H3      19.265934   19.474506   24.503273 H          1 MOL1         0.3682
       5    C1      18.897631   18.403401   22.708885 C.3        1 MOL1         0.0252
       6    H4      18.061881   17.802751   22.339745 H          1 MOL1         0.0971
       7    H5      19.756172   17.741891   22.834692 H          1 MOL1         0.0971
       8    C2      19.217836   19.509948   21.681388 C.3        1 MOL1        -0.1369
       9    H6      19.359740   19.056803   20.691367 H          1 MOL1         0.0997
      10    H7      18.335126   20.156941   21.591715 H          1 MOL1         0.0997
      11    C3      20.449382   20.387152   22.033713 C.3        1 MOL1        -0.1329
      12    H8      20.454686   20.635971   23.102722 H          1 MOL1         0.0997
      13    H9      20.339139   21.347266   21.510786 H          1 MOL1         0.0997
      14    C4      21.819997   19.790575   21.621946 C.3        1 MOL1        -0.1305
      15    H10     21.843905   19.632539   20.534640 H          1 MOL1         0.0997
      16    H11     22.598423   20.536270   21.836281 H          1 MOL1         0.0997
      17    C5      22.190752   18.474478   22.340527 C.3        1 MOL1        -0.2320
      18    H12     21.578486   17.638059   21.983335 H          1 MOL1         0.1008
      19    H13     23.238891   18.214339   22.143901 H          1 MOL1         0.1008
      20    H14     22.066153   18.564350   23.427338 H          1 MOL1         0.1008
@<TRIPOS>BOND
    1     1     2    1
    2     1     3    1
    3     1     4    1
    4     1     5    1
    5     5     6    1
    6     5     7    1
    7     5     8    1
    8     8     9    1
    9     8    10    1
   10     8    11    1
   11    11    12    1
   12    11    13    1
   13    11    14    1
   14    14    15    1
   15    14    16    1
   16    14    17    1
   17    17    18    1
   18    17    19    1
   19    17    20    1
@<TRIPOS>SUBSTRUCTURE
       1 MOL1            1 RESIDUE      1      MOL     
@<SCITEGIC>MOL_PROPERTY
VConf Rank
SciTegic.value.IntegerValue
510

@<SCITEGIC>MOL_PROPERTY
Conf_Id
SciTegic.value.IntegerValue
65

@<SCITEGIC>MOL_PROPERTY
Delta U+W
SciTegic.value.DoubleValue
2.949

@<SCITEGIC>MOL_PROPERTY
U+W
SciTegic.value.DoubleValue
-8.829

@<SCITEGIC>MOL_PROPERTY
Grad RMS
SciTegic.value.DoubleValue
0.000000

@<SCITEGIC>MOL_PROPERTY
U
SciTegic.value.DoubleValue
49.435

@<SCITEGIC>MOL_PROPERTY
W
SciTegic.value.DoubleValue
-58.263

@<SCITEGIC>MOL_PROPERTY
W(PB)
SciTegic.value.DoubleValue
-60.125

@<SCITEGIC>MOL_PROPERTY
W(SA)
SciTegic.value.DoubleValue
1.862

@<SCITEGIC>MOL_PROPERTY
Valence
SciTegic.value.DoubleValue
3.797

@<SCITEGIC>MOL_PROPERTY
Coulomb
SciTegic.value.DoubleValue
45.253

@<SCITEGIC>MOL_PROPERTY
VdW
SciTegic.value.DoubleValue
0.384

@<SCITEGIC>MOL_PROPERTY
VdW6
SciTegic.value.DoubleValue
-5.596

@<SCITEGIC>MOL_PROPERTY
VdW12
SciTegic.value.DoubleValue
5.980

@<SCITEGIC>MOL_PROPERTY
Bond
SciTegic.value.DoubleValue
0.198

@<SCITEGIC>MOL_PROPERTY
Angle
SciTegic.value.DoubleValue
1.369

@<SCITEGIC>MOL_PROPERTY
Pdih
SciTegic.value.DoubleValue
2.230

@<SCITEGIC>MOL_PROPERTY
Idih
SciTegic.value.DoubleValue
0.000

@<SCITEGIC>MOL_PROPERTY
Tether
SciTegic.value.DoubleValue
0.000

@<TRIPOS>MOLECULE
guest-s11_confgen4.mol2 : confsearch ligand conformer 511
          20          19           1
SMALL
USER_CHARGES
 
@<TRIPOS>ATOM
       1    N1      19.831071   19.035843   20.511576 N.4        1 MOL1        -0.5919
       2    H1      20.386107   19.108993   19.652352 H          1 MOL1         0.3682
       3    H2      20.241906   18.287723   21.078370 H          1 MOL1         0.3682
       4    H3      18.893045   18.729054   20.235182 H          1 MOL1         0.3682
       5    C1      19.792749   20.347704   21.271252 C.3        1 MOL1         0.0252
       6    H4      19.342780   21.089267   20.605570 H          1 MOL1         0.0971
       7    H5      20.818670   20.660426   21.483127 H          1 MOL1         0.0971
       8    C2      18.981550   20.289545   22.581589 C.3        1 MOL1        -0.1369
       9    H6      18.665172   21.312824   22.823696 H          1 MOL1         0.0997
      10    H7      18.055739   19.721364   22.420801 H          1 MOL1         0.0997
      11    C3      19.747843   19.728169   23.809396 C.3        1 MOL1        -0.1329
      12    H8      19.074716   19.795849   24.675331 H          1 MOL1         0.0997
      13    H9      20.599780   20.379537   24.048958 H          1 MOL1         0.0997
      14    C4      20.221442   18.257628   23.683967 C.3        1 MOL1        -0.1305
      15    H10     20.142782   17.779335   24.670530 H          1 MOL1         0.0997
      16    H11     19.547416   17.691402   23.027202 H          1 MOL1         0.0997
      17    C5      21.689663   18.130143   23.212912 C.3        1 MOL1        -0.2320
      18    H12     21.871939   18.645316   22.263718 H          1 MOL1         0.1008
      19    H13     22.372406   18.560996   23.956921 H          1 MOL1         0.1008
      20    H14     21.964649   17.075101   23.084657 H          1 MOL1         0.1008
@<TRIPOS>BOND
    1     1     2    1
    2     1     3    1
    3     1     4    1
    4     1     5    1
    5     5     6    1
    6     5     7    1
    7     5     8    1
    8     8     9    1
    9     8    10    1
   10     8    11    1
   11    11    12    1
   12    11    13    1
   13    11    14    1
   14    14    15    1
   15    14    16    1
   16    14    17    1
   17    17    18    1
   18    17    19    1
   19    17    20    1
@<TRIPOS>SUBSTRUCTURE
       1 MOL1            1 RESIDUE      1      MOL     
@<SCITEGIC>MOL_PROPERTY
VConf Rank
SciTegic.value.IntegerValue
511

@<SCITEGIC>MOL_PROPERTY
Conf_Id
SciTegic.value.IntegerValue
77

@<SCITEGIC>MOL_PROPERTY
Delta U+W
SciTegic.value.DoubleValue
5.366

@<SCITEGIC>MOL_PROPERTY
U+W
SciTegic.value.DoubleValue
-6.412

@<SCITEGIC>MOL_PROPERTY
Grad RMS
SciTegic.value.DoubleValue
0.000000

@<SCITEGIC>MOL_PROPERTY
U
SciTegic.value.DoubleValue
51.542

@<SCITEGIC>MOL_PROPERTY
W
SciTegic.value.DoubleValue
-57.954

@<SCITEGIC>MOL_PROPERTY
W(PB)
SciTegic.value.DoubleValue
-59.811

@<SCITEGIC>MOL_PROPERTY
W(SA)
SciTegic.value.DoubleValue
1.857

@<SCITEGIC>MOL_PROPERTY
Valence
SciTegic.value.DoubleValue
5.347

@<SCITEGIC>MOL_PROPERTY
Coulomb
SciTegic.value.DoubleValue
45.870

@<SCITEGIC>MOL_PROPERTY
VdW
SciTegic.value.DoubleValue
0.325

@<SCITEGIC>MOL_PROPERTY
VdW6
SciTegic.value.DoubleValue
-6.161

@<SCITEGIC>MOL_PROPERTY
VdW12
SciTegic.value.DoubleValue
6.486

@<SCITEGIC>MOL_PROPERTY
Bond
SciTegic.value.DoubleValue
0.201

@<SCITEGIC>MOL_PROPERTY
Angle
SciTegic.value.DoubleValue
1.484

@<SCITEGIC>MOL_PROPERTY
Pdih
SciTegic.value.DoubleValue
3.662

@<SCITEGIC>MOL_PROPERTY
Idih
SciTegic.value.DoubleValue
0.000

@<SCITEGIC>MOL_PROPERTY
Tether
SciTegic.value.DoubleValue
0.000

@<TRIPOS>MOLECULE
guest-s11_confgen4.mol2 : confsearch ligand conformer 512
          20          19           1
SMALL
USER_CHARGES
 
@<TRIPOS>ATOM
       1    N1      20.118027   20.892700   21.804970 N.4        1 MOL1        -0.5919
       2    H1      19.345366   21.094805   21.162666 H          1 MOL1         0.3682
       3    H2      19.705276   20.610574   22.699267 H          1 MOL1         0.3682
       4    H3      20.614179   21.776369   21.961955 H          1 MOL1         0.3682
       5    C1      21.038410   19.819054   21.257485 C.3        1 MOL1         0.0252
       6    H4      21.876482   19.690175   21.947578 H          1 MOL1         0.0971
       7    H5      21.434468   20.191232   20.308727 H          1 MOL1         0.0971
       8    C2      20.345118   18.462771   21.016131 C.3        1 MOL1        -0.1369
       9    H6      19.359298   18.625036   20.560457 H          1 MOL1         0.0997
      10    H7      20.933422   17.916057   20.267256 H          1 MOL1         0.0997
      11    C3      20.213119   17.555360   22.268747 C.3        1 MOL1        -0.1329
      12    H8      21.210611   17.284974   22.642064 H          1 MOL1         0.0997
      13    H9      19.756249   16.610589   21.942858 H          1 MOL1         0.0997
      14    C4      19.352074   18.131846   23.421477 C.3        1 MOL1        -0.1305
      15    H10     18.579568   18.804373   23.024988 H          1 MOL1         0.0997
      16    H11     18.806997   17.304954   23.898341 H          1 MOL1         0.0997
      17    C5      20.191770   18.836090   24.513618 C.3        1 MOL1        -0.2320
      18    H12     19.539699   19.276283   25.279264 H          1 MOL1         0.1008
      19    H13     20.852069   18.117211   25.016153 H          1 MOL1         0.1008
      20    H14     20.823672   19.633418   24.107955 H          1 MOL1         0.1008
@<TRIPOS>BOND
    1     1     2    1
    2     1     3    1
    3     1     4    1
    4     1     5    1
    5     5     6    1
    6     5     7    1
    7     5     8    1
    8     8     9    1
    9     8    10    1
   10     8    11    1
   11    11    12    1
   12    11    13    1
   13    11    14    1
   14    14    15    1
   15    14    16    1
   16    14    17    1
   17    17    18    1
   18    17    19    1
   19    17    20    1
@<TRIPOS>SUBSTRUCTURE
       1 MOL1            1 RESIDUE      1      MOL     
@<SCITEGIC>MOL_PROPERTY
VConf Rank
SciTegic.value.IntegerValue
512

@<SCITEGIC>MOL_PROPERTY
Conf_Id
SciTegic.value.IntegerValue
67

@<SCITEGIC>MOL_PROPERTY
Delta U+W
SciTegic.value.DoubleValue
5.353

@<SCITEGIC>MOL_PROPERTY
U+W
SciTegic.value.DoubleValue
-6.425

@<SCITEGIC>MOL_PROPERTY
Grad RMS
SciTegic.value.DoubleValue
0.000000

@<SCITEGIC>MOL_PROPERTY
U
SciTegic.value.DoubleValue
51.541

@<SCITEGIC>MOL_PROPERTY
W
SciTegic.value.DoubleValue
-57.966

@<SCITEGIC>MOL_PROPERTY
W(PB)
SciTegic.value.DoubleValue
-59.821

@<SCITEGIC>MOL_PROPERTY
W(SA)
SciTegic.value.DoubleValue
1.855

@<SCITEGIC>MOL_PROPERTY
Valence
SciTegic.value.DoubleValue
5.347

@<SCITEGIC>MOL_PROPERTY
Coulomb
SciTegic.value.DoubleValue
45.870

@<SCITEGIC>MOL_PROPERTY
VdW
SciTegic.value.DoubleValue
0.325

@<SCITEGIC>MOL_PROPERTY
VdW6
SciTegic.value.DoubleValue
-6.161

@<SCITEGIC>MOL_PROPERTY
VdW12
SciTegic.value.DoubleValue
6.486

@<SCITEGIC>MOL_PROPERTY
Bond
SciTegic.value.DoubleValue
0.201

@<SCITEGIC>MOL_PROPERTY
Angle
SciTegic.value.DoubleValue
1.485

@<SCITEGIC>MOL_PROPERTY
Pdih
SciTegic.value.DoubleValue
3.662

@<SCITEGIC>MOL_PROPERTY
Idih
SciTegic.value.DoubleValue
0.000

@<SCITEGIC>MOL_PROPERTY
Tether
SciTegic.value.DoubleValue
0.000

@<TRIPOS>MOLECULE
guest-s11_confgen4.mol2 : confsearch ligand conformer 513
          20          19           1
SMALL
USER_CHARGES
 
@<TRIPOS>ATOM
       1    N1      18.149163   16.661437   21.966042 N.4        1 MOL1        -0.5919
       2    H1      18.045138   16.765285   20.951753 H          1 MOL1         0.3682
       3    H2      18.128532   15.655744   22.165431 H          1 MOL1         0.3682
       4    H3      17.312748   17.066983   22.397701 H          1 MOL1         0.3682
       5    C1      19.420652   17.310361   22.474668 C.3        1 MOL1         0.0252
       6    H4      20.268499   16.811002   21.997895 H          1 MOL1         0.0971
       7    H5      19.481088   17.135504   23.552299 H          1 MOL1         0.0971
       8    C2      19.483648   18.821929   22.191013 C.3        1 MOL1        -0.1369
       9    H6      19.406560   18.993714   21.109063 H          1 MOL1         0.0997
      10    H7      18.621860   19.317116   22.658110 H          1 MOL1         0.0997
      11    C3      20.793324   19.443821   22.724614 C.3        1 MOL1        -0.1329
      12    H8      21.653464   18.942515   22.259167 H          1 MOL1         0.0997
      13    H9      20.869673   19.265609   23.806374 H          1 MOL1         0.0997
      14    C4      20.867645   20.961711   22.445285 C.3        1 MOL1        -0.1305
      15    H10     20.793720   21.144356   21.363979 H          1 MOL1         0.0997
      16    H11     20.010105   21.467424   22.911041 H          1 MOL1         0.0997
      17    C5      22.177756   21.578661   22.980038 C.3        1 MOL1        -0.2320
      18    H12     23.053980   21.116632   22.506778 H          1 MOL1         0.1008
      19    H13     22.212047   22.656032   22.772336 H          1 MOL1         0.1008
      20    H14     22.264190   21.442351   24.065931 H          1 MOL1         0.1008
@<TRIPOS>BOND
    1     1     2    1
    2     1     3    1
    3     1     4    1
    4     1     5    1
    5     5     6    1
    6     5     7    1
    7     5     8    1
    8     8     9    1
    9     8    10    1
   10     8    11    1
   11    11    12    1
   12    11    13    1
   13    11    14    1
   14    14    15    1
   15    14    16    1
   16    14    17    1
   17    17    18    1
   18    17    19    1
   19    17    20    1
@<TRIPOS>SUBSTRUCTURE
       1 MOL1            1 RESIDUE      1      MOL     
@<SCITEGIC>MOL_PROPERTY
VConf Rank
SciTegic.value.IntegerValue
513

@<SCITEGIC>MOL_PROPERTY
Conf_Id
SciTegic.value.IntegerValue
72

@<SCITEGIC>MOL_PROPERTY
Delta U+W
SciTegic.value.DoubleValue
0.000

@<SCITEGIC>MOL_PROPERTY
U+W
SciTegic.value.DoubleValue
-11.778

@<SCITEGIC>MOL_PROPERTY
Grad RMS
SciTegic.value.DoubleValue
0.000000

@<SCITEGIC>MOL_PROPERTY
U
SciTegic.value.DoubleValue
45.772

@<SCITEGIC>MOL_PROPERTY
W
SciTegic.value.DoubleValue
-57.550

@<SCITEGIC>MOL_PROPERTY
W(PB)
SciTegic.value.DoubleValue
-59.511

@<SCITEGIC>MOL_PROPERTY
W(SA)
SciTegic.value.DoubleValue
1.961

@<SCITEGIC>MOL_PROPERTY
Valence
SciTegic.value.DoubleValue
1.299

@<SCITEGIC>MOL_PROPERTY
Coulomb
SciTegic.value.DoubleValue
44.177

@<SCITEGIC>MOL_PROPERTY
VdW
SciTegic.value.DoubleValue
0.297

@<SCITEGIC>MOL_PROPERTY
VdW6
SciTegic.value.DoubleValue
-3.490

@<SCITEGIC>MOL_PROPERTY
VdW12
SciTegic.value.DoubleValue
3.786

@<SCITEGIC>MOL_PROPERTY
Bond
SciTegic.value.DoubleValue
0.096

@<SCITEGIC>MOL_PROPERTY
Angle
SciTegic.value.DoubleValue
0.381

@<SCITEGIC>MOL_PROPERTY
Pdih
SciTegic.value.DoubleValue
0.822

@<SCITEGIC>MOL_PROPERTY
Idih
SciTegic.value.DoubleValue
0.000

@<SCITEGIC>MOL_PROPERTY
Tether
SciTegic.value.DoubleValue
0.000

@<TRIPOS>MOLECULE
guest-s11_confgen4.mol2 : confsearch ligand conformer 514
          20          19           1
SMALL
USER_CHARGES
 
@<TRIPOS>ATOM
       1    N1      21.991643   21.511070   22.373928 N.4        1 MOL1        -0.5919
       2    H1      21.899115   21.569706   21.354941 H          1 MOL1         0.3682
       3    H2      21.362978   22.214375   22.774560 H          1 MOL1         0.3682
       4    H3      22.947845   21.802437   22.602765 H          1 MOL1         0.3682
       5    C1      21.688111   20.119430   22.891402 C.3        1 MOL1         0.0252
       6    H4      21.835773   20.122713   23.974766 H          1 MOL1         0.0971
       7    H5      22.411430   19.429356   22.448553 H          1 MOL1         0.0971
       8    C2      20.258743   19.650740   22.565053 C.3        1 MOL1        -0.1369
       9    H6      19.536090   20.355106   22.998011 H          1 MOL1         0.0997
      10    H7      20.116191   19.668358   21.477195 H          1 MOL1         0.0997
      11    C3      19.992586   18.228822   23.113177 C.3        1 MOL1        -0.1329
      12    H8      20.214277   18.213023   24.189441 H          1 MOL1         0.0997
      13    H9      20.685615   17.515947   22.645089 H          1 MOL1         0.0997
      14    C4      18.535946   17.748344   22.903392 C.3        1 MOL1        -0.1305
      15    H10     18.406855   16.781989   23.410771 H          1 MOL1         0.0997
      16    H11     17.840396   18.445946   23.390668 H          1 MOL1         0.0997
      17    C5      18.150712   17.584798   21.415313 C.3        1 MOL1        -0.2320
      18    H12     18.848240   16.913345   20.897993 H          1 MOL1         0.1008
      19    H13     17.143909   17.157054   21.324017 H          1 MOL1         0.1008
      20    H14     18.147575   18.548337   20.890904 H          1 MOL1         0.1008
@<TRIPOS>BOND
    1     1     2    1
    2     1     3    1
    3     1     4    1
    4     1     5    1
    5     5     6    1
    6     5     7    1
    7     5     8    1
    8     8     9    1
    9     8    10    1
   10     8    11    1
   11    11    12    1
   12    11    13    1
   13    11    14    1
   14    14    15    1
   15    14    16    1
   16    14    17    1
   17    17    18    1
   18    17    19    1
   19    17    20    1
@<TRIPOS>SUBSTRUCTURE
       1 MOL1            1 RESIDUE      1      MOL     
@<SCITEGIC>MOL_PROPERTY
VConf Rank
SciTegic.value.IntegerValue
514

@<SCITEGIC>MOL_PROPERTY
Conf_Id
SciTegic.value.IntegerValue
42

@<SCITEGIC>MOL_PROPERTY
Delta U+W
SciTegic.value.DoubleValue
0.508

@<SCITEGIC>MOL_PROPERTY
U+W
SciTegic.value.DoubleValue
-11.270

@<SCITEGIC>MOL_PROPERTY
Grad RMS
SciTegic.value.DoubleValue
0.000000

@<SCITEGIC>MOL_PROPERTY
U
SciTegic.value.DoubleValue
46.486

@<SCITEGIC>MOL_PROPERTY
W
SciTegic.value.DoubleValue
-57.756

@<SCITEGIC>MOL_PROPERTY
W(PB)
SciTegic.value.DoubleValue
-59.705

@<SCITEGIC>MOL_PROPERTY
W(SA)
SciTegic.value.DoubleValue
1.949

@<SCITEGIC>MOL_PROPERTY
Valence
SciTegic.value.DoubleValue
1.806

@<SCITEGIC>MOL_PROPERTY
Coulomb
SciTegic.value.DoubleValue
44.248

@<SCITEGIC>MOL_PROPERTY
VdW
SciTegic.value.DoubleValue
0.433

@<SCITEGIC>MOL_PROPERTY
VdW6
SciTegic.value.DoubleValue
-4.089

@<SCITEGIC>MOL_PROPERTY
VdW12
SciTegic.value.DoubleValue
4.522

@<SCITEGIC>MOL_PROPERTY
Bond
SciTegic.value.DoubleValue
0.131

@<SCITEGIC>MOL_PROPERTY
Angle
SciTegic.value.DoubleValue
0.628

@<SCITEGIC>MOL_PROPERTY
Pdih
SciTegic.value.DoubleValue
1.047

@<SCITEGIC>MOL_PROPERTY
Idih
SciTegic.value.DoubleValue
0.000

@<SCITEGIC>MOL_PROPERTY
Tether
SciTegic.value.DoubleValue
0.000

@<TRIPOS>MOLECULE
guest-s11_confgen4.mol2 : confsearch ligand conformer 515
          20          19           1
SMALL
USER_CHARGES
 
@<TRIPOS>ATOM
       1    N1      18.838836   19.031912   19.782962 N.4        1 MOL1        -0.5919
       2    H1      19.454538   18.344406   19.337306 H          1 MOL1         0.3682
       3    H2      18.033277   18.518785   20.154594 H          1 MOL1         0.3682
       4    H3      18.485088   19.641113   19.037765 H          1 MOL1         0.3682
       5    C1      19.555632   19.819435   20.861198 C.3        1 MOL1         0.0252
       6    H4      18.852087   20.549822   21.269936 H          1 MOL1         0.0971
       7    H5      20.379648   20.362714   20.390729 H          1 MOL1         0.0971
       8    C2      20.100400   18.934073   21.996377 C.3        1 MOL1        -0.1369
       9    H6      19.268058   18.380648   22.449141 H          1 MOL1         0.0997
      10    H7      20.794137   18.192025   21.579356 H          1 MOL1         0.0997
      11    C3      20.825005   19.777989   23.071499 C.3        1 MOL1        -0.1329
      12    H8      20.118798   20.489551   23.521542 H          1 MOL1         0.0997
      13    H9      21.604563   20.382092   22.586635 H          1 MOL1         0.0997
      14    C4      21.482801   18.927189   24.185102 C.3        1 MOL1        -0.1305
      15    H10     22.207686   18.230300   23.741519 H          1 MOL1         0.0997
      16    H11     22.059746   19.592428   24.842771 H          1 MOL1         0.0997
      17    C5      20.463669   18.141590   25.041688 C.3        1 MOL1        -0.2320
      18    H12     19.944661   17.376598   24.451061 H          1 MOL1         0.1008
      19    H13     20.971382   17.629977   25.869596 H          1 MOL1         0.1008
      20    H14     19.710329   18.812766   25.474140 H          1 MOL1         0.1008
@<TRIPOS>BOND
    1     1     2    1
    2     1     3    1
    3     1     4    1
    4     1     5    1
    5     5     6    1
    6     5     7    1
    7     5     8    1
    8     8     9    1
    9     8    10    1
   10     8    11    1
   11    11    12    1
   12    11    13    1
   13    11    14    1
   14    14    15    1
   15    14    16    1
   16    14    17    1
   17    17    18    1
   18    17    19    1
   19    17    20    1
@<TRIPOS>SUBSTRUCTURE
       1 MOL1            1 RESIDUE      1      MOL     
@<SCITEGIC>MOL_PROPERTY
VConf Rank
SciTegic.value.IntegerValue
515

@<SCITEGIC>MOL_PROPERTY
Conf_Id
SciTegic.value.IntegerValue
41

@<SCITEGIC>MOL_PROPERTY
Delta U+W
SciTegic.value.DoubleValue
0.515

@<SCITEGIC>MOL_PROPERTY
U+W
SciTegic.value.DoubleValue
-11.263

@<SCITEGIC>MOL_PROPERTY
Grad RMS
SciTegic.value.DoubleValue
0.000000

@<SCITEGIC>MOL_PROPERTY
U
SciTegic.value.DoubleValue
46.486

@<SCITEGIC>MOL_PROPERTY
W
SciTegic.value.DoubleValue
-57.749

@<SCITEGIC>MOL_PROPERTY
W(PB)
SciTegic.value.DoubleValue
-59.685

@<SCITEGIC>MOL_PROPERTY
W(SA)
SciTegic.value.DoubleValue
1.936

@<SCITEGIC>MOL_PROPERTY
Valence
SciTegic.value.DoubleValue
1.806

@<SCITEGIC>MOL_PROPERTY
Coulomb
SciTegic.value.DoubleValue
44.248

@<SCITEGIC>MOL_PROPERTY
VdW
SciTegic.value.DoubleValue
0.433

@<SCITEGIC>MOL_PROPERTY
VdW6
SciTegic.value.DoubleValue
-4.089

@<SCITEGIC>MOL_PROPERTY
VdW12
SciTegic.value.DoubleValue
4.522

@<SCITEGIC>MOL_PROPERTY
Bond
SciTegic.value.DoubleValue
0.131

@<SCITEGIC>MOL_PROPERTY
Angle
SciTegic.value.DoubleValue
0.628

@<SCITEGIC>MOL_PROPERTY
Pdih
SciTegic.value.DoubleValue
1.047

@<SCITEGIC>MOL_PROPERTY
Idih
SciTegic.value.DoubleValue
0.000

@<SCITEGIC>MOL_PROPERTY
Tether
SciTegic.value.DoubleValue
0.000

@<TRIPOS>MOLECULE
guest-s11_confgen4.mol2 : confsearch ligand conformer 516
          20          19           1
SMALL
USER_CHARGES
 
@<TRIPOS>ATOM
       1    N1      19.444262   21.792231   22.224299 N.4        1 MOL1        -0.5919
       2    H1      18.845376   22.591829   22.455558 H          1 MOL1         0.3682
       3    H2      20.248388   21.829165   22.857510 H          1 MOL1         0.3682
       4    H3      19.798249   21.949990   21.275616 H          1 MOL1         0.3682
       5    C1      18.696080   20.477797   22.336767 C.3        1 MOL1         0.0252
       6    H4      17.832367   20.531033   21.668362 H          1 MOL1         0.0971
       7    H5      18.327110   20.383135   23.361629 H          1 MOL1         0.0971
       8    C2      19.544634   19.242947   21.974867 C.3        1 MOL1        -0.1369
       9    H6      18.884010   18.367058   21.973475 H          1 MOL1         0.0997
      10    H7      19.928091   19.349021   20.951443 H          1 MOL1         0.0997
      11    C3      20.717473   19.012747   22.961059 C.3        1 MOL1        -0.1329
      12    H8      20.324673   18.884790   23.979294 H          1 MOL1         0.0997
      13    H9      21.354902   19.906432   22.985915 H          1 MOL1         0.0997
      14    C4      21.603392   17.797715   22.592512 C.3        1 MOL1        -0.1305
      15    H10     22.009905   17.927411   21.579698 H          1 MOL1         0.0997
      16    H11     22.468830   17.774836   23.269590 H          1 MOL1         0.0997
      17    C5      20.863459   16.443684   22.686653 C.3        1 MOL1        -0.2320
      18    H12     20.063866   16.367183   21.939614 H          1 MOL1         0.1008
      19    H13     21.559033   15.613099   22.509870 H          1 MOL1         0.1008
      20    H14     20.420433   16.303646   23.681199 H          1 MOL1         0.1008
@<TRIPOS>BOND
    1     1     2    1
    2     1     3    1
    3     1     4    1
    4     1     5    1
    5     5     6    1
    6     5     7    1
    7     5     8    1
    8     8     9    1
    9     8    10    1
   10     8    11    1
   11    11    12    1
   12    11    13    1
   13    11    14    1
   14    14    15    1
   15    14    16    1
   16    14    17    1
   17    17    18    1
   18    17    19    1
   19    17    20    1
@<TRIPOS>SUBSTRUCTURE
       1 MOL1            1 RESIDUE      1      MOL     
@<SCITEGIC>MOL_PROPERTY
VConf Rank
SciTegic.value.IntegerValue
516

@<SCITEGIC>MOL_PROPERTY
Conf_Id
SciTegic.value.IntegerValue
33

@<SCITEGIC>MOL_PROPERTY
Delta U+W
SciTegic.value.DoubleValue
0.703

@<SCITEGIC>MOL_PROPERTY
U+W
SciTegic.value.DoubleValue
-11.075

@<SCITEGIC>MOL_PROPERTY
Grad RMS
SciTegic.value.DoubleValue
0.000000

@<SCITEGIC>MOL_PROPERTY
U
SciTegic.value.DoubleValue
47.080

@<SCITEGIC>MOL_PROPERTY
W
SciTegic.value.DoubleValue
-58.154

@<SCITEGIC>MOL_PROPERTY
W(PB)
SciTegic.value.DoubleValue
-60.053

@<SCITEGIC>MOL_PROPERTY
W(SA)
SciTegic.value.DoubleValue
1.899

@<SCITEGIC>MOL_PROPERTY
Valence
SciTegic.value.DoubleValue
1.943

@<SCITEGIC>MOL_PROPERTY
Coulomb
SciTegic.value.DoubleValue
44.572

@<SCITEGIC>MOL_PROPERTY
VdW
SciTegic.value.DoubleValue
0.565

@<SCITEGIC>MOL_PROPERTY
VdW6
SciTegic.value.DoubleValue
-4.575

@<SCITEGIC>MOL_PROPERTY
VdW12
SciTegic.value.DoubleValue
5.139

@<SCITEGIC>MOL_PROPERTY
Bond
SciTegic.value.DoubleValue
0.158

@<SCITEGIC>MOL_PROPERTY
Angle
SciTegic.value.DoubleValue
0.700

@<SCITEGIC>MOL_PROPERTY
Pdih
SciTegic.value.DoubleValue
1.085

@<SCITEGIC>MOL_PROPERTY
Idih
SciTegic.value.DoubleValue
0.000

@<SCITEGIC>MOL_PROPERTY
Tether
SciTegic.value.DoubleValue
0.000

@<TRIPOS>MOLECULE
guest-s11_confgen4.mol2 : confsearch ligand conformer 517
          20          19           1
SMALL
USER_CHARGES
 
@<TRIPOS>ATOM
       1    N1      19.729988   20.563919   24.788844 N.4        1 MOL1        -0.5919
       2    H1      20.005023   20.850919   25.734088 H          1 MOL1         0.3682
       3    H2      19.200470   21.342159   24.383693 H          1 MOL1         0.3682
       4    H3      19.081417   19.778120   24.892832 H          1 MOL1         0.3682
       5    C1      20.932089   20.196244   23.940358 C.3        1 MOL1         0.0252
       6    H4      21.462852   19.380173   24.438115 H          1 MOL1         0.0971
       7    H5      21.594980   21.065376   23.912342 H          1 MOL1         0.0971
       8    C2      20.576131   19.780697   22.499359 C.3        1 MOL1        -0.1369
       9    H6      20.028055   20.595398   22.007865 H          1 MOL1         0.0997
      10    H7      21.512970   19.652132   21.943111 H          1 MOL1         0.0997
      11    C3      19.748558   18.471945   22.440981 C.3        1 MOL1        -0.1329
      12    H8      18.829565   18.594047   23.029329 H          1 MOL1         0.0997
      13    H9      20.312630   17.656369   22.914402 H          1 MOL1         0.0997
      14    C4      19.350198   18.058051   21.003283 C.3        1 MOL1        -0.1305
      15    H10     18.675392   17.192422   21.060409 H          1 MOL1         0.0997
      16    H11     18.773833   18.865344   20.530052 H          1 MOL1         0.0997
      17    C5      20.557269   17.688530   20.110983 C.3        1 MOL1        -0.2320
      18    H12     21.168080   16.904547   20.577122 H          1 MOL1         0.1008
      19    H13     20.214634   17.312260   19.138373 H          1 MOL1         0.1008
      20    H14     21.199318   18.557083   19.919513 H          1 MOL1         0.1008
@<TRIPOS>BOND
    1     1     2    1
    2     1     3    1
    3     1     4    1
    4     1     5    1
    5     5     6    1
    6     5     7    1
    7     5     8    1
    8     8     9    1
    9     8    10    1
   10     8    11    1
   11    11    12    1
   12    11    13    1
   13    11    14    1
   14    14    15    1
   15    14    16    1
   16    14    17    1
   17    17    18    1
   18    17    19    1
   19    17    20    1
@<TRIPOS>SUBSTRUCTURE
       1 MOL1            1 RESIDUE      1      MOL     
@<SCITEGIC>MOL_PROPERTY
VConf Rank
SciTegic.value.IntegerValue
517

@<SCITEGIC>MOL_PROPERTY
Conf_Id
SciTegic.value.IntegerValue
24

@<SCITEGIC>MOL_PROPERTY
Delta U+W
SciTegic.value.DoubleValue
0.847

@<SCITEGIC>MOL_PROPERTY
U+W
SciTegic.value.DoubleValue
-10.931

@<SCITEGIC>MOL_PROPERTY
Grad RMS
SciTegic.value.DoubleValue
0.000000

@<SCITEGIC>MOL_PROPERTY
U
SciTegic.value.DoubleValue
47.080

@<SCITEGIC>MOL_PROPERTY
W
SciTegic.value.DoubleValue
-58.011

@<SCITEGIC>MOL_PROPERTY
W(PB)
SciTegic.value.DoubleValue
-59.914

@<SCITEGIC>MOL_PROPERTY
W(SA)
SciTegic.value.DoubleValue
1.903

@<SCITEGIC>MOL_PROPERTY
Valence
SciTegic.value.DoubleValue
1.943

@<SCITEGIC>MOL_PROPERTY
Coulomb
SciTegic.value.DoubleValue
44.572

@<SCITEGIC>MOL_PROPERTY
VdW
SciTegic.value.DoubleValue
0.565

@<SCITEGIC>MOL_PROPERTY
VdW6
SciTegic.value.DoubleValue
-4.575

@<SCITEGIC>MOL_PROPERTY
VdW12
SciTegic.value.DoubleValue
5.140

@<SCITEGIC>MOL_PROPERTY
Bond
SciTegic.value.DoubleValue
0.158

@<SCITEGIC>MOL_PROPERTY
Angle
SciTegic.value.DoubleValue
0.700

@<SCITEGIC>MOL_PROPERTY
Pdih
SciTegic.value.DoubleValue
1.085

@<SCITEGIC>MOL_PROPERTY
Idih
SciTegic.value.DoubleValue
0.000

@<SCITEGIC>MOL_PROPERTY
Tether
SciTegic.value.DoubleValue
0.000

@<TRIPOS>MOLECULE
guest-s11_confgen4.mol2 : confsearch ligand conformer 518
          20          19           1
SMALL
USER_CHARGES
 
@<TRIPOS>ATOM
       1    N1      18.611982   21.485794   22.297041 N.4        1 MOL1        -0.5919
       2    H1      17.604045   21.572906   22.464269 H          1 MOL1         0.3682
       3    H2      19.084581   21.901866   23.105593 H          1 MOL1         0.3682
       4    H3      18.830145   22.072692   21.485706 H          1 MOL1         0.3682
       5    C1      19.024289   20.043852   22.079940 C.3        1 MOL1         0.0252
       6    H4      18.463266   19.656870   21.225027 H          1 MOL1         0.0971
       7    H5      18.735096   19.474677   22.967290 H          1 MOL1         0.0971
       8    C2      20.534497   19.877783   21.826327 C.3        1 MOL1        -0.1369
       9    H6      20.821786   20.486081   20.958457 H          1 MOL1         0.0997
      10    H7      21.098881   20.274268   22.679981 H          1 MOL1         0.0997
      11    C3      20.939503   18.406236   21.560781 C.3        1 MOL1        -0.1329
      12    H8      22.021880   18.362284   21.376956 H          1 MOL1         0.0997
      13    H9      20.461418   18.067040   20.631333 H          1 MOL1         0.0997
      14    C4      20.577858   17.416282   22.697631 C.3        1 MOL1        -0.1305
      15    H10     19.487913   17.366789   22.825488 H          1 MOL1         0.0997
      16    H11     20.891598   16.407052   22.396130 H          1 MOL1         0.0997
      17    C5      21.244511   17.761862   24.048615 C.3        1 MOL1        -0.2320
      18    H12     21.032870   16.982648   24.792213 H          1 MOL1         0.1008
      19    H13     22.334510   17.837727   23.943152 H          1 MOL1         0.1008
      20    H14     20.870654   18.711582   24.450981 H          1 MOL1         0.1008
@<TRIPOS>BOND
    1     1     2    1
    2     1     3    1
    3     1     4    1
    4     1     5    1
    5     5     6    1
    6     5     7    1
    7     5     8    1
    8     8     9    1
    9     8    10    1
   10     8    11    1
   11    11    12    1
   12    11    13    1
   13    11    14    1
   14    14    15    1
   15    14    16    1
   16    14    17    1
   17    17    18    1
   18    17    19    1
   19    17    20    1
@<TRIPOS>SUBSTRUCTURE
       1 MOL1            1 RESIDUE      1      MOL     
@<SCITEGIC>MOL_PROPERTY
VConf Rank
SciTegic.value.IntegerValue
518

@<SCITEGIC>MOL_PROPERTY
Conf_Id
SciTegic.value.IntegerValue
64

@<SCITEGIC>MOL_PROPERTY
Delta U+W
SciTegic.value.DoubleValue
0.707

@<SCITEGIC>MOL_PROPERTY
U+W
SciTegic.value.DoubleValue
-11.070

@<SCITEGIC>MOL_PROPERTY
Grad RMS
SciTegic.value.DoubleValue
0.000000

@<SCITEGIC>MOL_PROPERTY
U
SciTegic.value.DoubleValue
47.077

@<SCITEGIC>MOL_PROPERTY
W
SciTegic.value.DoubleValue
-58.148

@<SCITEGIC>MOL_PROPERTY
W(PB)
SciTegic.value.DoubleValue
-60.054

@<SCITEGIC>MOL_PROPERTY
W(SA)
SciTegic.value.DoubleValue
1.906

@<SCITEGIC>MOL_PROPERTY
Valence
SciTegic.value.DoubleValue
2.039

@<SCITEGIC>MOL_PROPERTY
Coulomb
SciTegic.value.DoubleValue
44.655

@<SCITEGIC>MOL_PROPERTY
VdW
SciTegic.value.DoubleValue
0.383

@<SCITEGIC>MOL_PROPERTY
VdW6
SciTegic.value.DoubleValue
-4.912

@<SCITEGIC>MOL_PROPERTY
VdW12
SciTegic.value.DoubleValue
5.295

@<SCITEGIC>MOL_PROPERTY
Bond
SciTegic.value.DoubleValue
0.159

@<SCITEGIC>MOL_PROPERTY
Angle
SciTegic.value.DoubleValue
0.856

@<SCITEGIC>MOL_PROPERTY
Pdih
SciTegic.value.DoubleValue
1.024

@<SCITEGIC>MOL_PROPERTY
Idih
SciTegic.value.DoubleValue
0.000

@<SCITEGIC>MOL_PROPERTY
Tether
SciTegic.value.DoubleValue
0.000

@<TRIPOS>MOLECULE
guest-s11_confgen4.mol2 : confsearch ligand conformer 519
          20          19           1
SMALL
USER_CHARGES
 
@<TRIPOS>ATOM
       1    N1      21.676358   20.429269   20.621147 N.4        1 MOL1        -0.5919
       2    H1      21.137257   21.100044   20.064605 H          1 MOL1         0.3682
       3    H2      22.157705   20.962386   21.352116 H          1 MOL1         0.3682
       4    H3      22.401621   20.047171   20.005125 H          1 MOL1         0.3682
       5    C1      20.797799   19.338970   21.200550 C.3        1 MOL1         0.0252
       6    H4      21.440292   18.647759   21.752288 H          1 MOL1         0.0971
       7    H5      20.341296   18.795128   20.369154 H          1 MOL1         0.0971
       8    C2      19.696881   19.879980   22.132166 C.3        1 MOL1        -0.1369
       9    H6      20.153724   20.433919   22.962167 H          1 MOL1         0.0997
      10    H7      19.083215   20.604068   21.580014 H          1 MOL1         0.0997
      11    C3      18.776036   18.762975   22.683835 C.3        1 MOL1        -0.1329
      12    H8      18.232308   18.303354   21.846816 H          1 MOL1         0.0997
      13    H9      18.010581   19.217893   23.327569 H          1 MOL1         0.0997
      14    C4      19.507085   17.648537   23.475553 C.3        1 MOL1        -0.1305
      15    H10     18.765166   16.905822   23.800843 H          1 MOL1         0.0997
      16    H11     20.203346   17.110172   22.818165 H          1 MOL1         0.0997
      17    C5      20.264237   18.172353   24.717063 C.3        1 MOL1        -0.2320
      18    H12     19.593635   18.732884   25.381195 H          1 MOL1         0.1008
      19    H13     20.684376   17.336942   25.291935 H          1 MOL1         0.1008
      20    H14     21.096299   18.829006   24.434016 H          1 MOL1         0.1008
@<TRIPOS>BOND
    1     1     2    1
    2     1     3    1
    3     1     4    1
    4     1     5    1
    5     5     6    1
    6     5     7    1
    7     5     8    1
    8     8     9    1
    9     8    10    1
   10     8    11    1
   11    11    12    1
   12    11    13    1
   13    11    14    1
   14    14    15    1
   15    14    16    1
   16    14    17    1
   17    17    18    1
   18    17    19    1
   19    17    20    1
@<TRIPOS>SUBSTRUCTURE
       1 MOL1            1 RESIDUE      1      MOL     
@<SCITEGIC>MOL_PROPERTY
VConf Rank
SciTegic.value.IntegerValue
519

@<SCITEGIC>MOL_PROPERTY
Conf_Id
SciTegic.value.IntegerValue
22

@<SCITEGIC>MOL_PROPERTY
Delta U+W
SciTegic.value.DoubleValue
0.731

@<SCITEGIC>MOL_PROPERTY
U+W
SciTegic.value.DoubleValue
-11.047

@<SCITEGIC>MOL_PROPERTY
Grad RMS
SciTegic.value.DoubleValue
0.000000

@<SCITEGIC>MOL_PROPERTY
U
SciTegic.value.DoubleValue
47.078

@<SCITEGIC>MOL_PROPERTY
W
SciTegic.value.DoubleValue
-58.125

@<SCITEGIC>MOL_PROPERTY
W(PB)
SciTegic.value.DoubleValue
-60.031

@<SCITEGIC>MOL_PROPERTY
W(SA)
SciTegic.value.DoubleValue
1.906

@<SCITEGIC>MOL_PROPERTY
Valence
SciTegic.value.DoubleValue
2.039

@<SCITEGIC>MOL_PROPERTY
Coulomb
SciTegic.value.DoubleValue
44.655

@<SCITEGIC>MOL_PROPERTY
VdW
SciTegic.value.DoubleValue
0.383

@<SCITEGIC>MOL_PROPERTY
VdW6
SciTegic.value.DoubleValue
-4.913

@<SCITEGIC>MOL_PROPERTY
VdW12
SciTegic.value.DoubleValue
5.296

@<SCITEGIC>MOL_PROPERTY
Bond
SciTegic.value.DoubleValue
0.159

@<SCITEGIC>MOL_PROPERTY
Angle
SciTegic.value.DoubleValue
0.856

@<SCITEGIC>MOL_PROPERTY
Pdih
SciTegic.value.DoubleValue
1.024

@<SCITEGIC>MOL_PROPERTY
Idih
SciTegic.value.DoubleValue
0.000

@<SCITEGIC>MOL_PROPERTY
Tether
SciTegic.value.DoubleValue
0.000

@<TRIPOS>MOLECULE
guest-s11_confgen4.mol2 : confsearch ligand conformer 520
          20          19           1
SMALL
USER_CHARGES
 
@<TRIPOS>ATOM
       1    N1      22.303958   20.519660   21.366821 N.4        1 MOL1        -0.5919
       2    H1      22.065628   21.500755   21.542846 H          1 MOL1         0.3682
       3    H2      23.188960   20.333638   21.848982 H          1 MOL1         0.3682
       4    H3      22.489538   20.434357   20.361945 H          1 MOL1         0.3682
       5    C1      21.204329   19.579797   21.818578 C.3        1 MOL1         0.0252
       6    H4      21.511473   18.558685   21.576943 H          1 MOL1         0.0971
       7    H5      20.307028   19.818461   21.243114 H          1 MOL1         0.0971
       8    C2      20.897611   19.687629   23.322894 C.3        1 MOL1        -0.1369
       9    H6      21.833576   19.563875   23.883765 H          1 MOL1         0.0997
      10    H7      20.531596   20.697732   23.549854 H          1 MOL1         0.0997
      11    C3      19.877792   18.638004   23.832964 C.3        1 MOL1        -0.1329
      12    H8      19.807372   18.749744   24.923884 H          1 MOL1         0.0997
      13    H9      20.262025   17.622691   23.663103 H          1 MOL1         0.0997
      14    C4      18.449528   18.775327   23.244410 C.3        1 MOL1        -0.1305
      15    H10     17.733968   18.384311   23.981420 H          1 MOL1         0.0997
      16    H11     18.193323   19.835357   23.108626 H          1 MOL1         0.0997
      17    C5      18.238496   17.998902   21.923250 C.3        1 MOL1        -0.2320
      18    H12     18.854154   18.391428   21.107307 H          1 MOL1         0.1008
      19    H13     18.477750   16.935000   22.049247 H          1 MOL1         0.1008
      20    H14     17.190502   18.067261   21.603844 H          1 MOL1         0.1008
@<TRIPOS>BOND
    1     1     2    1
    2     1     3    1
    3     1     4    1
    4     1     5    1
    5     5     6    1
    6     5     7    1
    7     5     8    1
    8     8     9    1
    9     8    10    1
   10     8    11    1
   11    11    12    1
   12    11    13    1
   13    11    14    1
   14    14    15    1
   15    14    16    1
   16    14    17    1
   17    17    18    1
   18    17    19    1
   19    17    20    1
@<TRIPOS>SUBSTRUCTURE
       1 MOL1            1 RESIDUE      1      MOL     
@<SCITEGIC>MOL_PROPERTY
VConf Rank
SciTegic.value.IntegerValue
520

@<SCITEGIC>MOL_PROPERTY
Conf_Id
SciTegic.value.IntegerValue
61

@<SCITEGIC>MOL_PROPERTY
Delta U+W
SciTegic.value.DoubleValue
2.669

@<SCITEGIC>MOL_PROPERTY
U+W
SciTegic.value.DoubleValue
-9.108

@<SCITEGIC>MOL_PROPERTY
Grad RMS
SciTegic.value.DoubleValue
0.000000

@<SCITEGIC>MOL_PROPERTY
U
SciTegic.value.DoubleValue
48.916

@<SCITEGIC>MOL_PROPERTY
W
SciTegic.value.DoubleValue
-58.025

@<SCITEGIC>MOL_PROPERTY
W(PB)
SciTegic.value.DoubleValue
-59.935

@<SCITEGIC>MOL_PROPERTY
W(SA)
SciTegic.value.DoubleValue
1.911

@<SCITEGIC>MOL_PROPERTY
Valence
SciTegic.value.DoubleValue
3.785

@<SCITEGIC>MOL_PROPERTY
Coulomb
SciTegic.value.DoubleValue
44.716

@<SCITEGIC>MOL_PROPERTY
VdW
SciTegic.value.DoubleValue
0.415

@<SCITEGIC>MOL_PROPERTY
VdW6
SciTegic.value.DoubleValue
-4.836

@<SCITEGIC>MOL_PROPERTY
VdW12
SciTegic.value.DoubleValue
5.251

@<SCITEGIC>MOL_PROPERTY
Bond
SciTegic.value.DoubleValue
0.175

@<SCITEGIC>MOL_PROPERTY
Angle
SciTegic.value.DoubleValue
1.195

@<SCITEGIC>MOL_PROPERTY
Pdih
SciTegic.value.DoubleValue
2.415

@<SCITEGIC>MOL_PROPERTY
Idih
SciTegic.value.DoubleValue
0.000

@<SCITEGIC>MOL_PROPERTY
Tether
SciTegic.value.DoubleValue
0.000

@<TRIPOS>MOLECULE
guest-s11_confgen4.mol2 : confsearch ligand conformer 521
          20          19           1
SMALL
USER_CHARGES
 
@<TRIPOS>ATOM
       1    N1      21.532582   17.252873   22.730385 N.4        1 MOL1        -0.5919
       2    H1      22.126616   16.562999   22.258325 H          1 MOL1         0.3682
       3    H2      21.509699   16.995301   23.722068 H          1 MOL1         0.3682
       4    H3      20.584281   17.132937   22.365193 H          1 MOL1         0.3682
       5    C1      22.043756   18.666487   22.527982 C.3        1 MOL1         0.0252
       6    H4      22.101958   18.865933   21.454590 H          1 MOL1         0.0971
       7    H5      23.058889   18.698530   22.932999 H          1 MOL1         0.0971
       8    C2      21.194871   19.755007   23.217905 C.3        1 MOL1        -0.1369
       9    H6      20.906286   19.425532   24.224870 H          1 MOL1         0.0997
      10    H7      21.834773   20.635758   23.361687 H          1 MOL1         0.0997
      11    C3      19.945191   20.202358   22.416689 C.3        1 MOL1        -0.1329
      12    H8      20.257182   20.583260   21.434323 H          1 MOL1         0.0997
      13    H9      19.488486   21.052294   22.942530 H          1 MOL1         0.0997
      14    C4      18.876631   19.100332   22.226871 C.3        1 MOL1        -0.1305
      15    H10     19.265235   18.307958   21.574964 H          1 MOL1         0.0997
      16    H11     18.638114   18.639985   23.195959 H          1 MOL1         0.0997
      17    C5      17.584283   19.663977   21.598253 C.3        1 MOL1        -0.2320
      18    H12     16.840499   18.868292   21.461423 H          1 MOL1         0.1008
      19    H13     17.136763   20.435552   22.238269 H          1 MOL1         0.1008
      20    H14     17.785203   20.109664   20.615266 H          1 MOL1         0.1008
@<TRIPOS>BOND
    1     1     2    1
    2     1     3    1
    3     1     4    1
    4     1     5    1
    5     5     6    1
    6     5     7    1
    7     5     8    1
    8     8     9    1
    9     8    10    1
   10     8    11    1
   11    11    12    1
   12    11    13    1
   13    11    14    1
   14    14    15    1
   15    14    16    1
   16    14    17    1
   17    17    18    1
   18    17    19    1
   19    17    20    1
@<TRIPOS>SUBSTRUCTURE
       1 MOL1            1 RESIDUE      1      MOL     
@<SCITEGIC>MOL_PROPERTY
VConf Rank
SciTegic.value.IntegerValue
521

@<SCITEGIC>MOL_PROPERTY
Conf_Id
SciTegic.value.IntegerValue
69

@<SCITEGIC>MOL_PROPERTY
Delta U+W
SciTegic.value.DoubleValue
2.811

@<SCITEGIC>MOL_PROPERTY
U+W
SciTegic.value.DoubleValue
-8.967

@<SCITEGIC>MOL_PROPERTY
Grad RMS
SciTegic.value.DoubleValue
0.000000

@<SCITEGIC>MOL_PROPERTY
U
SciTegic.value.DoubleValue
49.216

@<SCITEGIC>MOL_PROPERTY
W
SciTegic.value.DoubleValue
-58.183

@<SCITEGIC>MOL_PROPERTY
W(PB)
SciTegic.value.DoubleValue
-60.064

@<SCITEGIC>MOL_PROPERTY
W(SA)
SciTegic.value.DoubleValue
1.881

@<SCITEGIC>MOL_PROPERTY
Valence
SciTegic.value.DoubleValue
2.929

@<SCITEGIC>MOL_PROPERTY
Coulomb
SciTegic.value.DoubleValue
46.006

@<SCITEGIC>MOL_PROPERTY
VdW
SciTegic.value.DoubleValue
0.281

@<SCITEGIC>MOL_PROPERTY
VdW6
SciTegic.value.DoubleValue
-4.909

@<SCITEGIC>MOL_PROPERTY
VdW12
SciTegic.value.DoubleValue
5.190

@<SCITEGIC>MOL_PROPERTY
Bond
SciTegic.value.DoubleValue
0.156

@<SCITEGIC>MOL_PROPERTY
Angle
SciTegic.value.DoubleValue
0.974

@<SCITEGIC>MOL_PROPERTY
Pdih
SciTegic.value.DoubleValue
1.799

@<SCITEGIC>MOL_PROPERTY
Idih
SciTegic.value.DoubleValue
0.000

@<SCITEGIC>MOL_PROPERTY
Tether
SciTegic.value.DoubleValue
0.000

@<TRIPOS>MOLECULE
guest-s11_confgen4.mol2 : confsearch ligand conformer 522
          20          19           1
SMALL
USER_CHARGES
 
@<TRIPOS>ATOM
       1    N1      19.359207   19.646202   24.550605 N.4        1 MOL1        -0.5919
       2    H1      20.279842   19.947069   24.220547 H          1 MOL1         0.3682
       3    H2      18.739339   20.460891   24.502148 H          1 MOL1         0.3682
       4    H3      19.458260   19.407401   25.542979 H          1 MOL1         0.3682
       5    C1      18.820370   18.480555   23.743455 C.3        1 MOL1         0.0252
       6    H4      17.848033   18.220521   24.170657 H          1 MOL1         0.0971
       7    H5      19.487917   17.625174   23.877783 H          1 MOL1         0.0971
       8    C2      18.643439   18.775968   22.239160 C.3        1 MOL1        -0.1369
       9    H6      17.902727   18.067550   21.845002 H          1 MOL1         0.0997
      10    H7      18.208060   19.774440   22.100180 H          1 MOL1         0.0997
      11    C3      19.936472   18.628051   21.396571 C.3        1 MOL1        -0.1329
      12    H8      19.669279   18.746014   20.337245 H          1 MOL1         0.0997
      13    H9      20.326521   17.606073   21.500919 H          1 MOL1         0.0997
      14    C4      21.049751   19.643160   21.746536 C.3        1 MOL1        -0.1305
      15    H10     20.638867   20.662528   21.749096 H          1 MOL1         0.0997
      16    H11     21.437324   19.444007   22.753500 H          1 MOL1         0.0997
      17    C5      22.222250   19.568511   20.745191 C.3        1 MOL1        -0.2320
      18    H12     21.887487   19.800830   19.725787 H          1 MOL1         0.1008
      19    H13     23.007324   20.287574   21.012885 H          1 MOL1         0.1008
      20    H14     22.671603   18.566866   20.737375 H          1 MOL1         0.1008
@<TRIPOS>BOND
    1     1     2    1
    2     1     3    1
    3     1     4    1
    4     1     5    1
    5     5     6    1
    6     5     7    1
    7     5     8    1
    8     8     9    1
    9     8    10    1
   10     8    11    1
   11    11    12    1
   12    11    13    1
   13    11    14    1
   14    14    15    1
   15    14    16    1
   16    14    17    1
   17    17    18    1
   18    17    19    1
   19    17    20    1
@<TRIPOS>SUBSTRUCTURE
       1 MOL1            1 RESIDUE      1      MOL     
@<SCITEGIC>MOL_PROPERTY
VConf Rank
SciTegic.value.IntegerValue
522

@<SCITEGIC>MOL_PROPERTY
Conf_Id
SciTegic.value.IntegerValue
26

@<SCITEGIC>MOL_PROPERTY
Delta U+W
SciTegic.value.DoubleValue
2.809

@<SCITEGIC>MOL_PROPERTY
U+W
SciTegic.value.DoubleValue
-8.969

@<SCITEGIC>MOL_PROPERTY
Grad RMS
SciTegic.value.DoubleValue
0.000000

@<SCITEGIC>MOL_PROPERTY
U
SciTegic.value.DoubleValue
49.216

@<SCITEGIC>MOL_PROPERTY
W
SciTegic.value.DoubleValue
-58.185

@<SCITEGIC>MOL_PROPERTY
W(PB)
SciTegic.value.DoubleValue
-60.088

@<SCITEGIC>MOL_PROPERTY
W(SA)
SciTegic.value.DoubleValue
1.903

@<SCITEGIC>MOL_PROPERTY
Valence
SciTegic.value.DoubleValue
2.929

@<SCITEGIC>MOL_PROPERTY
Coulomb
SciTegic.value.DoubleValue
46.006

@<SCITEGIC>MOL_PROPERTY
VdW
SciTegic.value.DoubleValue
0.281

@<SCITEGIC>MOL_PROPERTY
VdW6
SciTegic.value.DoubleValue
-4.909

@<SCITEGIC>MOL_PROPERTY
VdW12
SciTegic.value.DoubleValue
5.190

@<SCITEGIC>MOL_PROPERTY
Bond
SciTegic.value.DoubleValue
0.156

@<SCITEGIC>MOL_PROPERTY
Angle
SciTegic.value.DoubleValue
0.974

@<SCITEGIC>MOL_PROPERTY
Pdih
SciTegic.value.DoubleValue
1.799

@<SCITEGIC>MOL_PROPERTY
Idih
SciTegic.value.DoubleValue
0.000

@<SCITEGIC>MOL_PROPERTY
Tether
SciTegic.value.DoubleValue
0.000

@<TRIPOS>MOLECULE
guest-s11_confgen4.mol2 : confsearch ligand conformer 523
          20          19           1
SMALL
USER_CHARGES
 
@<TRIPOS>ATOM
       1    N1      20.264964   18.601750   20.115792 N.4        1 MOL1        -0.5919
       2    H1      19.448171   18.115931   20.497588 H          1 MOL1         0.3682
       3    H2      19.918931   19.294027   19.444190 H          1 MOL1         0.3682
       4    H3      20.803215   17.911289   19.582071 H          1 MOL1         0.3682
       5    C1      21.097546   19.243478   21.208491 C.3        1 MOL1         0.0252
       6    H4      21.963333   19.713955   20.734600 H          1 MOL1         0.0971
       7    H5      21.461121   18.451418   21.868330 H          1 MOL1         0.0971
       8    C2      20.330868   20.296597   22.033984 C.3        1 MOL1        -0.1369
       9    H6      21.024732   20.761885   22.745735 H          1 MOL1         0.0997
      10    H7      19.999694   21.103948   21.367541 H          1 MOL1         0.0997
      11    C3      19.104907   19.729332   22.797021 C.3        1 MOL1        -0.1329
      12    H8      18.341193   19.413104   22.073870 H          1 MOL1         0.0997
      13    H9      18.644866   20.539753   23.379069 H          1 MOL1         0.0997
      14    C4      19.420365   18.543866   23.744749 C.3        1 MOL1        -0.1305
      15    H10     18.483574   18.210058   24.212559 H          1 MOL1         0.0997
      16    H11     19.792452   17.685403   23.169346 H          1 MOL1         0.0997
      17    C5      20.432346   18.900829   24.857095 C.3        1 MOL1        -0.2320
      18    H12     20.091395   19.767845   25.437610 H          1 MOL1         0.1008
      19    H13     20.553662   18.059125   25.551142 H          1 MOL1         0.1008
      20    H14     21.421536   19.131803   24.442659 H          1 MOL1         0.1008
@<TRIPOS>BOND
    1     1     2    1
    2     1     3    1
    3     1     4    1
    4     1     5    1
    5     5     6    1
    6     5     7    1
    7     5     8    1
    8     8     9    1
    9     8    10    1
   10     8    11    1
   11    11    12    1
   12    11    13    1
   13    11    14    1
   14    14    15    1
   15    14    16    1
   16    14    17    1
   17    17    18    1
   18    17    19    1
   19    17    20    1
@<TRIPOS>SUBSTRUCTURE
       1 MOL1            1 RESIDUE      1      MOL     
@<SCITEGIC>MOL_PROPERTY
VConf Rank
SciTegic.value.IntegerValue
523

@<SCITEGIC>MOL_PROPERTY
Conf_Id
SciTegic.value.IntegerValue
2

@<SCITEGIC>MOL_PROPERTY
Delta U+W
SciTegic.value.DoubleValue
0.994

@<SCITEGIC>MOL_PROPERTY
U+W
SciTegic.value.DoubleValue
-10.784

@<SCITEGIC>MOL_PROPERTY
Grad RMS
SciTegic.value.DoubleValue
0.000000

@<SCITEGIC>MOL_PROPERTY
U
SciTegic.value.DoubleValue
47.562

@<SCITEGIC>MOL_PROPERTY
W
SciTegic.value.DoubleValue
-58.346

@<SCITEGIC>MOL_PROPERTY
W(PB)
SciTegic.value.DoubleValue
-60.221

@<SCITEGIC>MOL_PROPERTY
W(SA)
SciTegic.value.DoubleValue
1.875

@<SCITEGIC>MOL_PROPERTY
Valence
SciTegic.value.DoubleValue
2.149

@<SCITEGIC>MOL_PROPERTY
Coulomb
SciTegic.value.DoubleValue
45.034

@<SCITEGIC>MOL_PROPERTY
VdW
SciTegic.value.DoubleValue
0.378

@<SCITEGIC>MOL_PROPERTY
VdW6
SciTegic.value.DoubleValue
-5.599

@<SCITEGIC>MOL_PROPERTY
VdW12
SciTegic.value.DoubleValue
5.977

@<SCITEGIC>MOL_PROPERTY
Bond
SciTegic.value.DoubleValue
0.185

@<SCITEGIC>MOL_PROPERTY
Angle
SciTegic.value.DoubleValue
0.935

@<SCITEGIC>MOL_PROPERTY
Pdih
SciTegic.value.DoubleValue
1.028

@<SCITEGIC>MOL_PROPERTY
Idih
SciTegic.value.DoubleValue
0.000

@<SCITEGIC>MOL_PROPERTY
Tether
SciTegic.value.DoubleValue
0.000

@<TRIPOS>MOLECULE
guest-s11_confgen4.mol2 : confsearch ligand conformer 524
          20          19           1
SMALL
USER_CHARGES
 
@<TRIPOS>ATOM
       1    N1      19.879943   17.463592   20.688867 N.4        1 MOL1        -0.5919
       2    H1      19.037746   16.880711   20.720394 H          1 MOL1         0.3682
       3    H2      19.603083   18.375319   20.313312 H          1 MOL1         0.3682
       4    H3      20.513136   17.036336   20.004888 H          1 MOL1         0.3682
       5    C1      20.527927   17.592267   22.053622 C.3        1 MOL1         0.0252
       6    H4      21.433398   18.194895   21.944552 H          1 MOL1         0.0971
       7    H5      20.824193   16.590805   22.377364 H          1 MOL1         0.0971
       8    C2      19.608715   18.223422   23.118976 C.3        1 MOL1        -0.1369
       9    H6      18.718887   17.592574   23.244976 H          1 MOL1         0.0997
      10    H7      20.126062   18.207693   24.086776 H          1 MOL1         0.0997
      11    C3      19.164355   19.672916   22.789575 C.3        1 MOL1        -0.1329
      12    H8      18.544418   20.048812   23.615153 H          1 MOL1         0.0997
      13    H9      18.509029   19.660764   21.908322 H          1 MOL1         0.0997
      14    C4      20.326114   20.667838   22.537620 C.3        1 MOL1        -0.1305
      15    H10     20.903545   20.362663   21.654480 H          1 MOL1         0.0997
      16    H11     19.899302   21.650829   22.293877 H          1 MOL1         0.0997
      17    C5      21.273632   20.823285   23.748770 C.3        1 MOL1        -0.2320
      18    H12     21.812455   19.891450   23.960797 H          1 MOL1         0.1008
      19    H13     22.023343   21.600820   23.553175 H          1 MOL1         0.1008
      20    H14     20.717928   21.112284   24.650232 H          1 MOL1         0.1008
@<TRIPOS>BOND
    1     1     2    1
    2     1     3    1
    3     1     4    1
    4     1     5    1
    5     5     6    1
    6     5     7    1
    7     5     8    1
    8     8     9    1
    9     8    10    1
   10     8    11    1
   11    11    12    1
   12    11    13    1
   13    11    14    1
   14    14    15    1
   15    14    16    1
   16    14    17    1
   17    17    18    1
   18    17    19    1
   19    17    20    1
@<TRIPOS>SUBSTRUCTURE
       1 MOL1            1 RESIDUE      1      MOL     
@<SCITEGIC>MOL_PROPERTY
VConf Rank
SciTegic.value.IntegerValue
524

@<SCITEGIC>MOL_PROPERTY
Conf_Id
SciTegic.value.IntegerValue
1

@<SCITEGIC>MOL_PROPERTY
Delta U+W
SciTegic.value.DoubleValue
1.032

@<SCITEGIC>MOL_PROPERTY
U+W
SciTegic.value.DoubleValue
-10.746

@<SCITEGIC>MOL_PROPERTY
Grad RMS
SciTegic.value.DoubleValue
0.000000

@<SCITEGIC>MOL_PROPERTY
U
SciTegic.value.DoubleValue
47.562

@<SCITEGIC>MOL_PROPERTY
W
SciTegic.value.DoubleValue
-58.308

@<SCITEGIC>MOL_PROPERTY
W(PB)
SciTegic.value.DoubleValue
-60.184

@<SCITEGIC>MOL_PROPERTY
W(SA)
SciTegic.value.DoubleValue
1.877

@<SCITEGIC>MOL_PROPERTY
Valence
SciTegic.value.DoubleValue
2.149

@<SCITEGIC>MOL_PROPERTY
Coulomb
SciTegic.value.DoubleValue
45.035

@<SCITEGIC>MOL_PROPERTY
VdW
SciTegic.value.DoubleValue
0.378

@<SCITEGIC>MOL_PROPERTY
VdW6
SciTegic.value.DoubleValue
-5.599

@<SCITEGIC>MOL_PROPERTY
VdW12
SciTegic.value.DoubleValue
5.978

@<SCITEGIC>MOL_PROPERTY
Bond
SciTegic.value.DoubleValue
0.185

@<SCITEGIC>MOL_PROPERTY
Angle
SciTegic.value.DoubleValue
0.935

@<SCITEGIC>MOL_PROPERTY
Pdih
SciTegic.value.DoubleValue
1.028

@<SCITEGIC>MOL_PROPERTY
Idih
SciTegic.value.DoubleValue
0.000

@<SCITEGIC>MOL_PROPERTY
Tether
SciTegic.value.DoubleValue
0.000

@<TRIPOS>MOLECULE
guest-s11_confgen4.mol2 : confsearch ligand conformer 525
          20          19           1
SMALL
USER_CHARGES
 
@<TRIPOS>ATOM
       1    N1      19.824259   18.542382   24.711540 N.4        1 MOL1        -0.5919
       2    H1      19.973124   19.248177   25.439402 H          1 MOL1         0.3682
       3    H2      18.926734   18.752184   24.265315 H          1 MOL1         0.3682
       4    H3      19.718103   17.640700   25.188034 H          1 MOL1         0.3682
       5    C1      20.960736   18.518335   23.707747 C.3        1 MOL1         0.0252
       6    H4      20.753515   17.728363   22.984198 H          1 MOL1         0.0971
       7    H5      21.871324   18.247716   24.249150 H          1 MOL1         0.0971
       8    C2      21.183056   19.864110   22.985127 C.3        1 MOL1        -0.1369
       9    H6      21.377891   20.631129   23.746403 H          1 MOL1         0.0997
      10    H7      22.096269   19.804514   22.378406 H          1 MOL1         0.0997
      11    C3      19.997352   20.328292   22.096891 C.3        1 MOL1        -0.1329
      12    H8      20.067507   21.419197   21.985406 H          1 MOL1         0.0997
      13    H9      19.040274   20.147567   22.602918 H          1 MOL1         0.0997
      14    C4      19.966403   19.718438   20.671706 C.3        1 MOL1        -0.1305
      15    H10     19.144852   20.189083   20.113590 H          1 MOL1         0.0997
      16    H11     20.887783   19.984030   20.134767 H          1 MOL1         0.0997
      17    C5      19.771948   18.186607   20.631577 C.3        1 MOL1        -0.2320
      18    H12     18.923393   17.875560   21.254446 H          1 MOL1         0.1008
      19    H13     19.573394   17.853765   19.604581 H          1 MOL1         0.1008
      20    H14     20.671371   17.660614   20.972786 H          1 MOL1         0.1008
@<TRIPOS>BOND
    1     1     2    1
    2     1     3    1
    3     1     4    1
    4     1     5    1
    5     5     6    1
    6     5     7    1
    7     5     8    1
    8     8     9    1
    9     8    10    1
   10     8    11    1
   11    11    12    1
   12    11    13    1
   13    11    14    1
   14    14    15    1
   15    14    16    1
   16    14    17    1
   17    17    18    1
   18    17    19    1
   19    17    20    1
@<TRIPOS>SUBSTRUCTURE
       1 MOL1            1 RESIDUE      1      MOL     
@<SCITEGIC>MOL_PROPERTY
VConf Rank
SciTegic.value.IntegerValue
525

@<SCITEGIC>MOL_PROPERTY
Conf_Id
SciTegic.value.IntegerValue
80

@<SCITEGIC>MOL_PROPERTY
Delta U+W
SciTegic.value.DoubleValue
2.920

@<SCITEGIC>MOL_PROPERTY
U+W
SciTegic.value.DoubleValue
-8.857

@<SCITEGIC>MOL_PROPERTY
Grad RMS
SciTegic.value.DoubleValue
0.000000

@<SCITEGIC>MOL_PROPERTY
U
SciTegic.value.DoubleValue
49.434

@<SCITEGIC>MOL_PROPERTY
W
SciTegic.value.DoubleValue
-58.292

@<SCITEGIC>MOL_PROPERTY
W(PB)
SciTegic.value.DoubleValue
-60.170

@<SCITEGIC>MOL_PROPERTY
W(SA)
SciTegic.value.DoubleValue
1.879

@<SCITEGIC>MOL_PROPERTY
Valence
SciTegic.value.DoubleValue
3.798

@<SCITEGIC>MOL_PROPERTY
Coulomb
SciTegic.value.DoubleValue
45.253

@<SCITEGIC>MOL_PROPERTY
VdW
SciTegic.value.DoubleValue
0.384

@<SCITEGIC>MOL_PROPERTY
VdW6
SciTegic.value.DoubleValue
-5.595

@<SCITEGIC>MOL_PROPERTY
VdW12
SciTegic.value.DoubleValue
5.979

@<SCITEGIC>MOL_PROPERTY
Bond
SciTegic.value.DoubleValue
0.198

@<SCITEGIC>MOL_PROPERTY
Angle
SciTegic.value.DoubleValue
1.368

@<SCITEGIC>MOL_PROPERTY
Pdih
SciTegic.value.DoubleValue
2.231

@<SCITEGIC>MOL_PROPERTY
Idih
SciTegic.value.DoubleValue
0.000

@<SCITEGIC>MOL_PROPERTY
Tether
SciTegic.value.DoubleValue
0.000

@<TRIPOS>MOLECULE
guest-s11_confgen4.mol2 : confsearch ligand conformer 526
          20          19           1
SMALL
USER_CHARGES
 
@<TRIPOS>ATOM
       1    N1      20.784352   16.964862   22.155990 N.4        1 MOL1        -0.5919
       2    H1      21.249518   16.459132   22.916218 H          1 MOL1         0.3682
       3    H2      20.491167   16.263963   21.467419 H          1 MOL1         0.3682
       4    H3      21.492601   17.550171   21.703793 H          1 MOL1         0.3682
       5    C1      19.612071   17.785368   22.658271 C.3        1 MOL1         0.0252
       6    H4      18.884517   17.090553   23.086547 H          1 MOL1         0.0971
       7    H5      19.147313   18.269353   21.797879 H          1 MOL1         0.0971
       8    C2      19.996205   18.835132   23.722772 C.3        1 MOL1        -0.1369
       9    H6      19.084034   19.292893   24.127761 H          1 MOL1         0.0997
      10    H7      20.467617   18.310004   24.564099 H          1 MOL1         0.0997
      11    C3      20.958114   19.946204   23.222197 C.3        1 MOL1        -0.1329
      12    H8      21.745178   19.519918   22.586956 H          1 MOL1         0.0997
      13    H9      21.479941   20.358521   24.096906 H          1 MOL1         0.0997
      14    C4      20.271530   21.129553   22.492588 C.3        1 MOL1        -0.1305
      15    H10     19.551727   21.613665   23.167348 H          1 MOL1         0.0997
      16    H11     21.035836   21.887772   22.271477 H          1 MOL1         0.0997
      17    C5      19.563210   20.748414   21.173898 C.3        1 MOL1        -0.2320
      18    H12     18.649974   20.171981   21.363047 H          1 MOL1         0.1008
      19    H13     19.266966   21.651562   20.624816 H          1 MOL1         0.1008
      20    H14     20.222656   20.161228   20.521898 H          1 MOL1         0.1008
@<TRIPOS>BOND
    1     1     2    1
    2     1     3    1
    3     1     4    1
    4     1     5    1
    5     5     6    1
    6     5     7    1
    7     5     8    1
    8     8     9    1
    9     8    10    1
   10     8    11    1
   11    11    12    1
   12    11    13    1
   13    11    14    1
   14    14    15    1
   15    14    16    1
   16    14    17    1
   17    17    18    1
   18    17    19    1
   19    17    20    1
@<TRIPOS>SUBSTRUCTURE
       1 MOL1            1 RESIDUE      1      MOL     
@<SCITEGIC>MOL_PROPERTY
VConf Rank
SciTegic.value.IntegerValue
526

@<SCITEGIC>MOL_PROPERTY
Conf_Id
SciTegic.value.IntegerValue
65

@<SCITEGIC>MOL_PROPERTY
Delta U+W
SciTegic.value.DoubleValue
2.949

@<SCITEGIC>MOL_PROPERTY
U+W
SciTegic.value.DoubleValue
-8.829

@<SCITEGIC>MOL_PROPERTY
Grad RMS
SciTegic.value.DoubleValue
0.000000

@<SCITEGIC>MOL_PROPERTY
U
SciTegic.value.DoubleValue
49.435

@<SCITEGIC>MOL_PROPERTY
W
SciTegic.value.DoubleValue
-58.263

@<SCITEGIC>MOL_PROPERTY
W(PB)
SciTegic.value.DoubleValue
-60.125

@<SCITEGIC>MOL_PROPERTY
W(SA)
SciTegic.value.DoubleValue
1.862

@<SCITEGIC>MOL_PROPERTY
Valence
SciTegic.value.DoubleValue
3.797

@<SCITEGIC>MOL_PROPERTY
Coulomb
SciTegic.value.DoubleValue
45.253

@<SCITEGIC>MOL_PROPERTY
VdW
SciTegic.value.DoubleValue
0.384

@<SCITEGIC>MOL_PROPERTY
VdW6
SciTegic.value.DoubleValue
-5.596

@<SCITEGIC>MOL_PROPERTY
VdW12
SciTegic.value.DoubleValue
5.980

@<SCITEGIC>MOL_PROPERTY
Bond
SciTegic.value.DoubleValue
0.198

@<SCITEGIC>MOL_PROPERTY
Angle
SciTegic.value.DoubleValue
1.369

@<SCITEGIC>MOL_PROPERTY
Pdih
SciTegic.value.DoubleValue
2.230

@<SCITEGIC>MOL_PROPERTY
Idih
SciTegic.value.DoubleValue
0.000

@<SCITEGIC>MOL_PROPERTY
Tether
SciTegic.value.DoubleValue
0.000

@<TRIPOS>MOLECULE
guest-s11_confgen4.mol2 : confsearch ligand conformer 527
          20          19           1
SMALL
USER_CHARGES
 
@<TRIPOS>ATOM
       1    N1      18.902930   19.286449   20.896510 N.4        1 MOL1        -0.5919
       2    H1      18.810550   19.818704   20.024815 H          1 MOL1         0.3682
       3    H2      19.805984   18.803465   20.865772 H          1 MOL1         0.3682
       4    H3      18.172193   18.567898   20.885782 H          1 MOL1         0.3682
       5    C1      18.795063   20.180217   22.116796 C.3        1 MOL1         0.0252
       6    H4      17.810795   20.654889   22.079061 H          1 MOL1         0.0971
       7    H5      19.552923   20.964875   22.044956 H          1 MOL1         0.0971
       8    C2      18.941696   19.431311   23.456964 C.3        1 MOL1        -0.1369
       9    H6      18.451430   20.035331   24.231954 H          1 MOL1         0.0997
      10    H7      18.383603   18.486424   23.417848 H          1 MOL1         0.0997
      11    C3      20.402673   19.171699   23.913042 C.3        1 MOL1        -0.1329
      12    H8      20.357642   18.686044   24.897743 H          1 MOL1         0.0997
      13    H9      20.917954   20.127578   24.081111 H          1 MOL1         0.0997
      14    C4      21.244397   18.271893   22.972632 C.3        1 MOL1        -0.1305
      15    H10     21.914441   17.653903   23.586950 H          1 MOL1         0.0997
      16    H11     20.597519   17.563441   22.437927 H          1 MOL1         0.0997
      17    C5      22.119595   19.077675   21.983409 C.3        1 MOL1        -0.2320
      18    H12     21.532914   19.776152   21.377166 H          1 MOL1         0.1008
      19    H13     22.872803   19.665033   22.524712 H          1 MOL1         0.1008
      20    H14     22.654324   18.403239   21.301954 H          1 MOL1         0.1008
@<TRIPOS>BOND
    1     1     2    1
    2     1     3    1
    3     1     4    1
    4     1     5    1
    5     5     6    1
    6     5     7    1
    7     5     8    1
    8     8     9    1
    9     8    10    1
   10     8    11    1
   11    11    12    1
   12    11    13    1
   13    11    14    1
   14    14    15    1
   15    14    16    1
   16    14    17    1
   17    17    18    1
   18    17    19    1
   19    17    20    1
@<TRIPOS>SUBSTRUCTURE
       1 MOL1            1 RESIDUE      1      MOL     
@<SCITEGIC>MOL_PROPERTY
VConf Rank
SciTegic.value.IntegerValue
527

@<SCITEGIC>MOL_PROPERTY
Conf_Id
SciTegic.value.IntegerValue
77

@<SCITEGIC>MOL_PROPERTY
Delta U+W
SciTegic.value.DoubleValue
5.366

@<SCITEGIC>MOL_PROPERTY
U+W
SciTegic.value.DoubleValue
-6.412

@<SCITEGIC>MOL_PROPERTY
Grad RMS
SciTegic.value.DoubleValue
0.000000

@<SCITEGIC>MOL_PROPERTY
U
SciTegic.value.DoubleValue
51.542

@<SCITEGIC>MOL_PROPERTY
W
SciTegic.value.DoubleValue
-57.954

@<SCITEGIC>MOL_PROPERTY
W(PB)
SciTegic.value.DoubleValue
-59.811

@<SCITEGIC>MOL_PROPERTY
W(SA)
SciTegic.value.DoubleValue
1.857

@<SCITEGIC>MOL_PROPERTY
Valence
SciTegic.value.DoubleValue
5.347

@<SCITEGIC>MOL_PROPERTY
Coulomb
SciTegic.value.DoubleValue
45.870

@<SCITEGIC>MOL_PROPERTY
VdW
SciTegic.value.DoubleValue
0.325

@<SCITEGIC>MOL_PROPERTY
VdW6
SciTegic.value.DoubleValue
-6.161

@<SCITEGIC>MOL_PROPERTY
VdW12
SciTegic.value.DoubleValue
6.486

@<SCITEGIC>MOL_PROPERTY
Bond
SciTegic.value.DoubleValue
0.201

@<SCITEGIC>MOL_PROPERTY
Angle
SciTegic.value.DoubleValue
1.484

@<SCITEGIC>MOL_PROPERTY
Pdih
SciTegic.value.DoubleValue
3.662

@<SCITEGIC>MOL_PROPERTY
Idih
SciTegic.value.DoubleValue
0.000

@<SCITEGIC>MOL_PROPERTY
Tether
SciTegic.value.DoubleValue
0.000

@<TRIPOS>MOLECULE
guest-s11_confgen4.mol2 : confsearch ligand conformer 528
          20          19           1
SMALL
USER_CHARGES
 
@<TRIPOS>ATOM
       1    N1      19.586773   18.990682   24.328573 N.4        1 MOL1        -0.5919
       2    H1      20.328541   19.043269   25.033853 H          1 MOL1         0.3682
       3    H2      19.619016   19.859663   23.786763 H          1 MOL1         0.3682
       4    H3      18.694758   18.978148   24.834374 H          1 MOL1         0.3682
       5    C1      19.745245   17.775702   23.435113 C.3        1 MOL1         0.0252
       6    H4      18.896183   17.732620   22.747772 H          1 MOL1         0.0971
       7    H5      19.702614   16.895501   24.082375 H          1 MOL1         0.0971
       8    C2      21.065735   17.751449   22.638790 C.3        1 MOL1        -0.1369
       9    H6      21.895065   18.069772   23.284306 H          1 MOL1         0.0997
      10    H7      21.277122   16.706629   22.375202 H          1 MOL1         0.0997
      11    C3      21.061330   18.579196   21.325520 C.3        1 MOL1        -0.1329
      12    H8      20.318426   18.169514   20.627151 H          1 MOL1         0.0997
      13    H9      22.035099   18.428201   20.839206 H          1 MOL1         0.0997
      14    C4      20.843564   20.103926   21.499570 C.3        1 MOL1        -0.1305
      15    H10     21.224630   20.437889   22.474004 H          1 MOL1         0.0997
      16    H11     21.449108   20.631758   20.749257 H          1 MOL1         0.0997
      17    C5      19.370042   20.533492   21.304565 C.3        1 MOL1        -0.2320
      18    H12     19.252592   21.608935   21.491133 H          1 MOL1         0.1008
      19    H13     19.044833   20.339930   20.273985 H          1 MOL1         0.1008
      20    H14     18.685199   19.997594   21.970446 H          1 MOL1         0.1008
@<TRIPOS>BOND
    1     1     2    1
    2     1     3    1
    3     1     4    1
    4     1     5    1
    5     5     6    1
    6     5     7    1
    7     5     8    1
    8     8     9    1
    9     8    10    1
   10     8    11    1
   11    11    12    1
   12    11    13    1
   13    11    14    1
   14    14    15    1
   15    14    16    1
   16    14    17    1
   17    17    18    1
   18    17    19    1
   19    17    20    1
@<TRIPOS>SUBSTRUCTURE
       1 MOL1            1 RESIDUE      1      MOL     
@<SCITEGIC>MOL_PROPERTY
VConf Rank
SciTegic.value.IntegerValue
528

@<SCITEGIC>MOL_PROPERTY
Conf_Id
SciTegic.value.IntegerValue
67

@<SCITEGIC>MOL_PROPERTY
Delta U+W
SciTegic.value.DoubleValue
5.353

@<SCITEGIC>MOL_PROPERTY
U+W
SciTegic.value.DoubleValue
-6.425

@<SCITEGIC>MOL_PROPERTY
Grad RMS
SciTegic.value.DoubleValue
0.000000

@<SCITEGIC>MOL_PROPERTY
U
SciTegic.value.DoubleValue
51.541

@<SCITEGIC>MOL_PROPERTY
W
SciTegic.value.DoubleValue
-57.966

@<SCITEGIC>MOL_PROPERTY
W(PB)
SciTegic.value.DoubleValue
-59.821

@<SCITEGIC>MOL_PROPERTY
W(SA)
SciTegic.value.DoubleValue
1.855

@<SCITEGIC>MOL_PROPERTY
Valence
SciTegic.value.DoubleValue
5.347

@<SCITEGIC>MOL_PROPERTY
Coulomb
SciTegic.value.DoubleValue
45.870

@<SCITEGIC>MOL_PROPERTY
VdW
SciTegic.value.DoubleValue
0.325

@<SCITEGIC>MOL_PROPERTY
VdW6
SciTegic.value.DoubleValue
-6.161

@<SCITEGIC>MOL_PROPERTY
VdW12
SciTegic.value.DoubleValue
6.486

@<SCITEGIC>MOL_PROPERTY
Bond
SciTegic.value.DoubleValue
0.201

@<SCITEGIC>MOL_PROPERTY
Angle
SciTegic.value.DoubleValue
1.485

@<SCITEGIC>MOL_PROPERTY
Pdih
SciTegic.value.DoubleValue
3.662

@<SCITEGIC>MOL_PROPERTY
Idih
SciTegic.value.DoubleValue
0.000

@<SCITEGIC>MOL_PROPERTY
Tether
SciTegic.value.DoubleValue
0.000

@<TRIPOS>MOLECULE
guest-s11_confgen4.mol2 : confsearch ligand conformer 529
          20          19           1
SMALL
USER_CHARGES
 
@<TRIPOS>ATOM
       1    N1      18.586367   19.911230   19.767229 N.4        1 MOL1        -0.5919
       2    H1      18.709664   19.024448   19.268427 H          1 MOL1         0.3682
       3    H2      17.660887   20.270490   19.510289 H          1 MOL1         0.3682
       4    H3      19.275663   20.568288   19.388371 H          1 MOL1         0.3682
       5    C1      18.728598   19.742604   21.266504 C.3        1 MOL1         0.0252
       6    H4      17.947343   19.056417   21.604595 H          1 MOL1         0.0971
       7    H5      18.555990   20.716061   21.733520 H          1 MOL1         0.0971
       8    C2      20.108036   19.204082   21.686514 C.3        1 MOL1        -0.1369
       9    H6      20.283855   18.234011   21.202657 H          1 MOL1         0.0997
      10    H7      20.890422   19.887932   21.331142 H          1 MOL1         0.0997
      11    C3      20.211382   19.047052   23.219939 C.3        1 MOL1        -0.1329
      12    H8      19.423930   18.366396   23.572665 H          1 MOL1         0.0997
      13    H9      20.029856   20.018349   23.701003 H          1 MOL1         0.0997
      14    C4      21.592590   18.506753   23.653390 C.3        1 MOL1        -0.1305
      15    H10     21.777353   17.534124   23.175998 H          1 MOL1         0.0997
      16    H11     22.383189   19.185879   23.304411 H          1 MOL1         0.0997
      17    C5      21.691193   18.351425   25.186077 C.3        1 MOL1        -0.2320
      18    H12     20.934271   17.650530   25.561620 H          1 MOL1         0.1008
      19    H13     22.678223   17.966923   25.474129 H          1 MOL1         0.1008
      20    H14     21.544979   19.315194   25.691036 H          1 MOL1         0.1008
@<TRIPOS>BOND
    1     1     2    1
    2     1     3    1
    3     1     4    1
    4     1     5    1
    5     5     6    1
    6     5     7    1
    7     5     8    1
    8     8     9    1
    9     8    10    1
   10     8    11    1
   11    11    12    1
   12    11    13    1
   13    11    14    1
   14    14    15    1
   15    14    16    1
   16    14    17    1
   17    17    18    1
   18    17    19    1
   19    17    20    1
@<TRIPOS>SUBSTRUCTURE
       1 MOL1            1 RESIDUE      1      MOL     
@<SCITEGIC>MOL_PROPERTY
VConf Rank
SciTegic.value.IntegerValue
529

@<SCITEGIC>MOL_PROPERTY
Conf_Id
SciTegic.value.IntegerValue
72

@<SCITEGIC>MOL_PROPERTY
Delta U+W
SciTegic.value.DoubleValue
0.000

@<SCITEGIC>MOL_PROPERTY
U+W
SciTegic.value.DoubleValue
-11.778

@<SCITEGIC>MOL_PROPERTY
Grad RMS
SciTegic.value.DoubleValue
0.000000

@<SCITEGIC>MOL_PROPERTY
U
SciTegic.value.DoubleValue
45.772

@<SCITEGIC>MOL_PROPERTY
W
SciTegic.value.DoubleValue
-57.550

@<SCITEGIC>MOL_PROPERTY
W(PB)
SciTegic.value.DoubleValue
-59.511

@<SCITEGIC>MOL_PROPERTY
W(SA)
SciTegic.value.DoubleValue
1.961

@<SCITEGIC>MOL_PROPERTY
Valence
SciTegic.value.DoubleValue
1.299

@<SCITEGIC>MOL_PROPERTY
Coulomb
SciTegic.value.DoubleValue
44.177

@<SCITEGIC>MOL_PROPERTY
VdW
SciTegic.value.DoubleValue
0.297

@<SCITEGIC>MOL_PROPERTY
VdW6
SciTegic.value.DoubleValue
-3.490

@<SCITEGIC>MOL_PROPERTY
VdW12
SciTegic.value.DoubleValue
3.786

@<SCITEGIC>MOL_PROPERTY
Bond
SciTegic.value.DoubleValue
0.096

@<SCITEGIC>MOL_PROPERTY
Angle
SciTegic.value.DoubleValue
0.381

@<SCITEGIC>MOL_PROPERTY
Pdih
SciTegic.value.DoubleValue
0.822

@<SCITEGIC>MOL_PROPERTY
Idih
SciTegic.value.DoubleValue
0.000

@<SCITEGIC>MOL_PROPERTY
Tether
SciTegic.value.DoubleValue
0.000

@<TRIPOS>MOLECULE
guest-s11_confgen4.mol2 : confsearch ligand conformer 530
          20          19           1
SMALL
USER_CHARGES
 
@<TRIPOS>ATOM
       1    N1      22.541034   17.548000   23.122546 N.4        1 MOL1        -0.5919
       2    H1      23.138518   18.189211   22.591323 H          1 MOL1         0.3682
       3    H2      22.623008   17.808382   24.110395 H          1 MOL1         0.3682
       4    H3      22.950136   16.612550   23.026889 H          1 MOL1         0.3682
       5    C1      21.103541   17.585385   22.644226 C.3        1 MOL1         0.0252
       6    H4      20.533907   16.859323   23.230610 H          1 MOL1         0.0971
       7    H5      21.087665   17.269373   21.597618 H          1 MOL1         0.0971
       8    C2      20.458254   18.976739   22.774643 C.3        1 MOL1        -0.1369
       9    H6      20.490692   19.296947   23.824512 H          1 MOL1         0.0997
      10    H7      21.047782   19.699956   22.197166 H          1 MOL1         0.0997
      11    C3      18.993217   18.967686   22.277939 C.3        1 MOL1        -0.1329
      12    H8      18.438451   18.185244   22.814371 H          1 MOL1         0.0997
      13    H9      18.964590   18.692051   21.214552 H          1 MOL1         0.0997
      14    C4      18.262998   20.317334   22.482632 C.3        1 MOL1        -0.1305
      15    H10     17.207415   20.193127   22.202890 H          1 MOL1         0.0997
      16    H11     18.268368   20.585183   23.548514 H          1 MOL1         0.0997
      17    C5      18.865177   21.474273   21.652931 C.3        1 MOL1        -0.2320
      18    H12     18.897226   21.220130   20.585505 H          1 MOL1         0.1008
      19    H13     18.258303   22.382302   21.763116 H          1 MOL1         0.1008
      20    H14     19.883745   21.717701   21.979558 H          1 MOL1         0.1008
@<TRIPOS>BOND
    1     1     2    1
    2     1     3    1
    3     1     4    1
    4     1     5    1
    5     5     6    1
    6     5     7    1
    7     5     8    1
    8     8     9    1
    9     8    10    1
   10     8    11    1
   11    11    12    1
   12    11    13    1
   13    11    14    1
   14    14    15    1
   15    14    16    1
   16    14    17    1
   17    17    18    1
   18    17    19    1
   19    17    20    1
@<TRIPOS>SUBSTRUCTURE
       1 MOL1            1 RESIDUE      1      MOL     
@<SCITEGIC>MOL_PROPERTY
VConf Rank
SciTegic.value.IntegerValue
530

@<SCITEGIC>MOL_PROPERTY
Conf_Id
SciTegic.value.IntegerValue
42

@<SCITEGIC>MOL_PROPERTY
Delta U+W
SciTegic.value.DoubleValue
0.508

@<SCITEGIC>MOL_PROPERTY
U+W
SciTegic.value.DoubleValue
-11.270

@<SCITEGIC>MOL_PROPERTY
Grad RMS
SciTegic.value.DoubleValue
0.000000

@<SCITEGIC>MOL_PROPERTY
U
SciTegic.value.DoubleValue
46.486

@<SCITEGIC>MOL_PROPERTY
W
SciTegic.value.DoubleValue
-57.756

@<SCITEGIC>MOL_PROPERTY
W(PB)
SciTegic.value.DoubleValue
-59.705

@<SCITEGIC>MOL_PROPERTY
W(SA)
SciTegic.value.DoubleValue
1.949

@<SCITEGIC>MOL_PROPERTY
Valence
SciTegic.value.DoubleValue
1.806

@<SCITEGIC>MOL_PROPERTY
Coulomb
SciTegic.value.DoubleValue
44.248

@<SCITEGIC>MOL_PROPERTY
VdW
SciTegic.value.DoubleValue
0.433

@<SCITEGIC>MOL_PROPERTY
VdW6
SciTegic.value.DoubleValue
-4.089

@<SCITEGIC>MOL_PROPERTY
VdW12
SciTegic.value.DoubleValue
4.522

@<SCITEGIC>MOL_PROPERTY
Bond
SciTegic.value.DoubleValue
0.131

@<SCITEGIC>MOL_PROPERTY
Angle
SciTegic.value.DoubleValue
0.628

@<SCITEGIC>MOL_PROPERTY
Pdih
SciTegic.value.DoubleValue
1.047

@<SCITEGIC>MOL_PROPERTY
Idih
SciTegic.value.DoubleValue
0.000

@<SCITEGIC>MOL_PROPERTY
Tether
SciTegic.value.DoubleValue
0.000

@<TRIPOS>MOLECULE
guest-s11_confgen4.mol2 : confsearch ligand conformer 531
          20          19           1
SMALL
USER_CHARGES
 
@<TRIPOS>ATOM
       1    N1      22.011321   21.194024   23.492804 N.4        1 MOL1        -0.5919
       2    H1      21.651230   21.966469   22.923570 H          1 MOL1         0.3682
       3    H2      21.520679   21.228094   24.391939 H          1 MOL1         0.3682
       4    H3      22.997352   21.400556   23.684298 H          1 MOL1         0.3682
       5    C1      21.840055   19.855011   22.804115 C.3        1 MOL1         0.0252
       6    H4      22.270464   19.085380   23.450586 H          1 MOL1         0.0971
       7    H5      22.411507   19.879404   21.872267 H          1 MOL1         0.0971
       8    C2      20.369980   19.513809   22.501240 C.3        1 MOL1        -0.1369
       9    H6      19.802920   19.509645   23.440651 H          1 MOL1         0.0997
      10    H7      19.937264   20.297248   21.865007 H          1 MOL1         0.0997
      11    C3      20.242895   18.142081   21.797434 C.3        1 MOL1        -0.1329
      12    H8      20.633887   17.351856   22.453375 H          1 MOL1         0.0997
      13    H9      20.877532   18.140192   20.900230 H          1 MOL1         0.0997
      14    C4      18.794007   17.795473   21.376418 C.3        1 MOL1        -0.1305
      15    H10     18.407295   18.571379   20.700917 H          1 MOL1         0.0997
      16    H11     18.809217   16.862702   20.795345 H          1 MOL1         0.0997
      17    C5      17.831044   17.621043   22.573001 C.3        1 MOL1        -0.2320
      18    H12     17.688073   18.563026   23.116737 H          1 MOL1         0.1008
      19    H13     16.844188   17.287972   22.226403 H          1 MOL1         0.1008
      20    H14     18.209431   16.870048   23.278582 H          1 MOL1         0.1008
@<TRIPOS>BOND
    1     1     2    1
    2     1     3    1
    3     1     4    1
    4     1     5    1
    5     5     6    1
    6     5     7    1
    7     5     8    1
    8     8     9    1
    9     8    10    1
   10     8    11    1
   11    11    12    1
   12    11    13    1
   13    11    14    1
   14    14    15    1
   15    14    16    1
   16    14    17    1
   17    17    18    1
   18    17    19    1
   19    17    20    1
@<TRIPOS>SUBSTRUCTURE
       1 MOL1            1 RESIDUE      1      MOL     
@<SCITEGIC>MOL_PROPERTY
VConf Rank
SciTegic.value.IntegerValue
531

@<SCITEGIC>MOL_PROPERTY
Conf_Id
SciTegic.value.IntegerValue
41

@<SCITEGIC>MOL_PROPERTY
Delta U+W
SciTegic.value.DoubleValue
0.515

@<SCITEGIC>MOL_PROPERTY
U+W
SciTegic.value.DoubleValue
-11.263

@<SCITEGIC>MOL_PROPERTY
Grad RMS
SciTegic.value.DoubleValue
0.000000

@<SCITEGIC>MOL_PROPERTY
U
SciTegic.value.DoubleValue
46.486

@<SCITEGIC>MOL_PROPERTY
W
SciTegic.value.DoubleValue
-57.749

@<SCITEGIC>MOL_PROPERTY
W(PB)
SciTegic.value.DoubleValue
-59.685

@<SCITEGIC>MOL_PROPERTY
W(SA)
SciTegic.value.DoubleValue
1.936

@<SCITEGIC>MOL_PROPERTY
Valence
SciTegic.value.DoubleValue
1.806

@<SCITEGIC>MOL_PROPERTY
Coulomb
SciTegic.value.DoubleValue
44.248

@<SCITEGIC>MOL_PROPERTY
VdW
SciTegic.value.DoubleValue
0.433

@<SCITEGIC>MOL_PROPERTY
VdW6
SciTegic.value.DoubleValue
-4.089

@<SCITEGIC>MOL_PROPERTY
VdW12
SciTegic.value.DoubleValue
4.522

@<SCITEGIC>MOL_PROPERTY
Bond
SciTegic.value.DoubleValue
0.131

@<SCITEGIC>MOL_PROPERTY
Angle
SciTegic.value.DoubleValue
0.628

@<SCITEGIC>MOL_PROPERTY
Pdih
SciTegic.value.DoubleValue
1.047

@<SCITEGIC>MOL_PROPERTY
Idih
SciTegic.value.DoubleValue
0.000

@<SCITEGIC>MOL_PROPERTY
Tether
SciTegic.value.DoubleValue
0.000

@<TRIPOS>MOLECULE
guest-s11_confgen4.mol2 : confsearch ligand conformer 532
          20          19           1
SMALL
USER_CHARGES
 
@<TRIPOS>ATOM
       1    N1      18.111173   17.911633   23.888443 N.4        1 MOL1        -0.5919
       2    H1      17.484379   17.856980   24.698161 H          1 MOL1         0.3682
       3    H2      17.602194   18.406848   23.150444 H          1 MOL1         0.3682
       4    H3      18.260123   16.951724   23.561974 H          1 MOL1         0.3682
       5    C1      19.417715   18.600007   24.233773 C.3        1 MOL1         0.0252
       6    H4      19.878613   18.041951   25.053374 H          1 MOL1         0.0971
       7    H5      19.187018   19.605784   24.595205 H          1 MOL1         0.0971
       8    C2      20.408565   18.686597   23.056238 C.3        1 MOL1        -0.1369
       9    H6      21.354539   19.089410   23.438969 H          1 MOL1         0.0997
      10    H7      20.624750   17.676365   22.684238 H          1 MOL1         0.0997
      11    C3      19.888698   19.578838   21.900920 C.3        1 MOL1        -0.1329
      12    H8      19.696267   20.593809   22.275448 H          1 MOL1         0.0997
      13    H9      18.924072   19.192393   21.546287 H          1 MOL1         0.0997
      14    C4      20.854694   19.648291   20.693025 C.3        1 MOL1        -0.1305
      15    H10     21.039653   18.636411   20.306045 H          1 MOL1         0.0997
      16    H11     20.363331   20.202081   19.880733 H          1 MOL1         0.0997
      17    C5      22.200930   20.334921   21.018528 C.3        1 MOL1        -0.2320
      18    H12     22.789224   19.750989   21.737000 H          1 MOL1         0.1008
      19    H13     22.806194   20.443380   20.109221 H          1 MOL1         0.1008
      20    H14     22.042402   21.337335   21.436904 H          1 MOL1         0.1008
@<TRIPOS>BOND
    1     1     2    1
    2     1     3    1
    3     1     4    1
    4     1     5    1
    5     5     6    1
    6     5     7    1
    7     5     8    1
    8     8     9    1
    9     8    10    1
   10     8    11    1
   11    11    12    1
   12    11    13    1
   13    11    14    1
   14    14    15    1
   15    14    16    1
   16    14    17    1
   17    17    18    1
   18    17    19    1
   19    17    20    1
@<TRIPOS>SUBSTRUCTURE
       1 MOL1            1 RESIDUE      1      MOL     
@<SCITEGIC>MOL_PROPERTY
VConf Rank
SciTegic.value.IntegerValue
532

@<SCITEGIC>MOL_PROPERTY
Conf_Id
SciTegic.value.IntegerValue
33

@<SCITEGIC>MOL_PROPERTY
Delta U+W
SciTegic.value.DoubleValue
0.703

@<SCITEGIC>MOL_PROPERTY
U+W
SciTegic.value.DoubleValue
-11.075

@<SCITEGIC>MOL_PROPERTY
Grad RMS
SciTegic.value.DoubleValue
0.000000

@<SCITEGIC>MOL_PROPERTY
U
SciTegic.value.DoubleValue
47.080

@<SCITEGIC>MOL_PROPERTY
W
SciTegic.value.DoubleValue
-58.154

@<SCITEGIC>MOL_PROPERTY
W(PB)
SciTegic.value.DoubleValue
-60.053

@<SCITEGIC>MOL_PROPERTY
W(SA)
SciTegic.value.DoubleValue
1.899

@<SCITEGIC>MOL_PROPERTY
Valence
SciTegic.value.DoubleValue
1.943

@<SCITEGIC>MOL_PROPERTY
Coulomb
SciTegic.value.DoubleValue
44.572

@<SCITEGIC>MOL_PROPERTY
VdW
SciTegic.value.DoubleValue
0.565

@<SCITEGIC>MOL_PROPERTY
VdW6
SciTegic.value.DoubleValue
-4.575

@<SCITEGIC>MOL_PROPERTY
VdW12
SciTegic.value.DoubleValue
5.139

@<SCITEGIC>MOL_PROPERTY
Bond
SciTegic.value.DoubleValue
0.158

@<SCITEGIC>MOL_PROPERTY
Angle
SciTegic.value.DoubleValue
0.700

@<SCITEGIC>MOL_PROPERTY
Pdih
SciTegic.value.DoubleValue
1.085

@<SCITEGIC>MOL_PROPERTY
Idih
SciTegic.value.DoubleValue
0.000

@<SCITEGIC>MOL_PROPERTY
Tether
SciTegic.value.DoubleValue
0.000

@<TRIPOS>MOLECULE
guest-s11_confgen4.mol2 : confsearch ligand conformer 533
          20          19           1
SMALL
USER_CHARGES
 
@<TRIPOS>ATOM
       1    N1      22.583716   20.354237   22.919178 N.4        1 MOL1        -0.5919
       2    H1      23.368930   20.602288   23.530251 H          1 MOL1         0.3682
       3    H2      22.955339   20.295544   21.965949 H          1 MOL1         0.3682
       4    H3      21.928925   21.141458   22.940894 H          1 MOL1         0.3682
       5    C1      21.923885   19.058095   23.349059 C.3        1 MOL1         0.0252
       6    H4      21.572122   19.180214   24.377063 H          1 MOL1         0.0971
       7    H5      22.690997   18.278929   23.342845 H          1 MOL1         0.0971
       8    C2      20.751013   18.625111   22.447528 C.3        1 MOL1        -0.1369
       9    H6      21.103469   18.520210   21.412896 H          1 MOL1         0.0997
      10    H7      20.425635   17.628563   22.770992 H          1 MOL1         0.0997
      11    C3      19.556438   19.610398   22.505117 C.3        1 MOL1        -0.1329
      12    H8      19.895848   20.613671   22.215542 H          1 MOL1         0.0997
      13    H9      19.194789   19.692969   23.539457 H          1 MOL1         0.0997
      14    C4      18.382771   19.211186   21.577695 C.3        1 MOL1        -0.1305
      15    H10     17.633502   20.015131   21.592233 H          1 MOL1         0.0997
      16    H11     18.736505   19.140558   20.539547 H          1 MOL1         0.0997
      17    C5      17.697704   17.886633   21.985133 C.3        1 MOL1        -0.2320
      18    H12     17.362612   17.920000   23.029932 H          1 MOL1         0.1008
      19    H13     16.817058   17.700870   21.356719 H          1 MOL1         0.1008
      20    H14     18.372193   17.029670   21.867022 H          1 MOL1         0.1008
@<TRIPOS>BOND
    1     1     2    1
    2     1     3    1
    3     1     4    1
    4     1     5    1
    5     5     6    1
    6     5     7    1
    7     5     8    1
    8     8     9    1
    9     8    10    1
   10     8    11    1
   11    11    12    1
   12    11    13    1
   13    11    14    1
   14    14    15    1
   15    14    16    1
   16    14    17    1
   17    17    18    1
   18    17    19    1
   19    17    20    1
@<TRIPOS>SUBSTRUCTURE
       1 MOL1            1 RESIDUE      1      MOL     
@<SCITEGIC>MOL_PROPERTY
VConf Rank
SciTegic.value.IntegerValue
533

@<SCITEGIC>MOL_PROPERTY
Conf_Id
SciTegic.value.IntegerValue
24

@<SCITEGIC>MOL_PROPERTY
Delta U+W
SciTegic.value.DoubleValue
0.847

@<SCITEGIC>MOL_PROPERTY
U+W
SciTegic.value.DoubleValue
-10.931

@<SCITEGIC>MOL_PROPERTY
Grad RMS
SciTegic.value.DoubleValue
0.000000

@<SCITEGIC>MOL_PROPERTY
U
SciTegic.value.DoubleValue
47.080

@<SCITEGIC>MOL_PROPERTY
W
SciTegic.value.DoubleValue
-58.011

@<SCITEGIC>MOL_PROPERTY
W(PB)
SciTegic.value.DoubleValue
-59.914

@<SCITEGIC>MOL_PROPERTY
W(SA)
SciTegic.value.DoubleValue
1.903

@<SCITEGIC>MOL_PROPERTY
Valence
SciTegic.value.DoubleValue
1.943

@<SCITEGIC>MOL_PROPERTY
Coulomb
SciTegic.value.DoubleValue
44.572

@<SCITEGIC>MOL_PROPERTY
VdW
SciTegic.value.DoubleValue
0.565

@<SCITEGIC>MOL_PROPERTY
VdW6
SciTegic.value.DoubleValue
-4.575

@<SCITEGIC>MOL_PROPERTY
VdW12
SciTegic.value.DoubleValue
5.140

@<SCITEGIC>MOL_PROPERTY
Bond
SciTegic.value.DoubleValue
0.158

@<SCITEGIC>MOL_PROPERTY
Angle
SciTegic.value.DoubleValue
0.700

@<SCITEGIC>MOL_PROPERTY
Pdih
SciTegic.value.DoubleValue
1.085

@<SCITEGIC>MOL_PROPERTY
Idih
SciTegic.value.DoubleValue
0.000

@<SCITEGIC>MOL_PROPERTY
Tether
SciTegic.value.DoubleValue
0.000

@<TRIPOS>MOLECULE
guest-s11_confgen4.mol2 : confsearch ligand conformer 534
          20          19           1
SMALL
USER_CHARGES
 
@<TRIPOS>ATOM
       1    N1      21.628972   17.795094   20.672358 N.4        1 MOL1        -0.5919
       2    H1      22.497688   17.280696   20.851849 H          1 MOL1         0.3682
       3    H2      20.886660   17.096752   20.565056 H          1 MOL1         0.3682
       4    H3      21.740269   18.258279   19.764954 H          1 MOL1         0.3682
       5    C1      21.321084   18.783825   21.778678 C.3        1 MOL1         0.0252
       6    H4      22.163003   19.476995   21.856550 H          1 MOL1         0.0971
       7    H5      21.246607   18.226392   22.716071 H          1 MOL1         0.0971
       8    C2      20.020403   19.573651   21.539868 C.3        1 MOL1        -0.1369
       9    H6      20.089473   20.096233   20.576594 H          1 MOL1         0.0997
      10    H7      19.175919   18.878197   21.452436 H          1 MOL1         0.0997
      11    C3      19.737531   20.613429   22.652901 C.3        1 MOL1        -0.1329
      12    H8      18.806599   21.146141   22.414474 H          1 MOL1         0.0997
      13    H9      20.531486   21.373031   22.641308 H          1 MOL1         0.0997
      14    C4      19.632216   20.023956   24.082814 C.3        1 MOL1        -0.1305
      15    H10     20.590861   19.578166   24.381225 H          1 MOL1         0.0997
      16    H11     19.450444   20.846832   24.788303 H          1 MOL1         0.0997
      17    C5      18.503341   18.979247   24.235236 C.3        1 MOL1        -0.2320
      18    H12     18.410569   18.663489   25.282420 H          1 MOL1         0.1008
      19    H13     17.536285   19.394406   23.923112 H          1 MOL1         0.1008
      20    H14     18.701869   18.081481   23.636706 H          1 MOL1         0.1008
@<TRIPOS>BOND
    1     1     2    1
    2     1     3    1
    3     1     4    1
    4     1     5    1
    5     5     6    1
    6     5     7    1
    7     5     8    1
    8     8     9    1
    9     8    10    1
   10     8    11    1
   11    11    12    1
   12    11    13    1
   13    11    14    1
   14    14    15    1
   15    14    16    1
   16    14    17    1
   17    17    18    1
   18    17    19    1
   19    17    20    1
@<TRIPOS>SUBSTRUCTURE
       1 MOL1            1 RESIDUE      1      MOL     
@<SCITEGIC>MOL_PROPERTY
VConf Rank
SciTegic.value.IntegerValue
534

@<SCITEGIC>MOL_PROPERTY
Conf_Id
SciTegic.value.IntegerValue
64

@<SCITEGIC>MOL_PROPERTY
Delta U+W
SciTegic.value.DoubleValue
0.707

@<SCITEGIC>MOL_PROPERTY
U+W
SciTegic.value.DoubleValue
-11.070

@<SCITEGIC>MOL_PROPERTY
Grad RMS
SciTegic.value.DoubleValue
0.000000

@<SCITEGIC>MOL_PROPERTY
U
SciTegic.value.DoubleValue
47.077

@<SCITEGIC>MOL_PROPERTY
W
SciTegic.value.DoubleValue
-58.148

@<SCITEGIC>MOL_PROPERTY
W(PB)
SciTegic.value.DoubleValue
-60.054

@<SCITEGIC>MOL_PROPERTY
W(SA)
SciTegic.value.DoubleValue
1.906

@<SCITEGIC>MOL_PROPERTY
Valence
SciTegic.value.DoubleValue
2.039

@<SCITEGIC>MOL_PROPERTY
Coulomb
SciTegic.value.DoubleValue
44.655

@<SCITEGIC>MOL_PROPERTY
VdW
SciTegic.value.DoubleValue
0.383

@<SCITEGIC>MOL_PROPERTY
VdW6
SciTegic.value.DoubleValue
-4.912

@<SCITEGIC>MOL_PROPERTY
VdW12
SciTegic.value.DoubleValue
5.295

@<SCITEGIC>MOL_PROPERTY
Bond
SciTegic.value.DoubleValue
0.159

@<SCITEGIC>MOL_PROPERTY
Angle
SciTegic.value.DoubleValue
0.856

@<SCITEGIC>MOL_PROPERTY
Pdih
SciTegic.value.DoubleValue
1.024

@<SCITEGIC>MOL_PROPERTY
Idih
SciTegic.value.DoubleValue
0.000

@<SCITEGIC>MOL_PROPERTY
Tether
SciTegic.value.DoubleValue
0.000

@<TRIPOS>MOLECULE
guest-s11_confgen4.mol2 : confsearch ligand conformer 535
          20          19           1
SMALL
USER_CHARGES
 
@<TRIPOS>ATOM
       1    N1      21.029452   21.444938   23.576627 N.4        1 MOL1        -0.5919
       2    H1      20.831024   22.266108   22.996443 H          1 MOL1         0.3682
       3    H2      20.300561   21.400889   24.295655 H          1 MOL1         0.3682
       4    H3      21.914198   21.630073   24.060815 H          1 MOL1         0.3682
       5    C1      21.092443   20.173172   22.755061 C.3        1 MOL1         0.0252
       6    H4      21.336385   19.348897   23.430374 H          1 MOL1         0.0971
       7    H5      21.905815   20.277754   22.031965 H          1 MOL1         0.0971
       8    C2      19.777430   19.865375   22.014370 C.3        1 MOL1        -0.1369
       9    H6      18.958517   19.769272   22.738663 H          1 MOL1         0.0997
      10    H7      19.520255   20.716927   21.370567 H          1 MOL1         0.0997
      11    C3      19.865639   18.588371   21.141745 C.3        1 MOL1        -0.1329
      12    H8      20.603528   18.751896   20.344078 H          1 MOL1         0.0997
      13    H9      18.902543   18.435721   20.635378 H          1 MOL1         0.0997
      14    C4      20.242911   17.297668   21.913091 C.3        1 MOL1        -0.1305
      15    H10     20.294682   16.464786   21.197892 H          1 MOL1         0.0997
      16    H11     21.251028   17.391146   22.339398 H          1 MOL1         0.0997
      17    C5      19.238178   16.933131   23.029619 C.3        1 MOL1        -0.2320
      18    H12     18.217936   16.853940   22.632365 H          1 MOL1         0.1008
      19    H13     19.498509   15.966821   23.480593 H          1 MOL1         0.1008
      20    H14     19.238182   17.681747   23.831623 H          1 MOL1         0.1008
@<TRIPOS>BOND
    1     1     2    1
    2     1     3    1
    3     1     4    1
    4     1     5    1
    5     5     6    1
    6     5     7    1
    7     5     8    1
    8     8     9    1
    9     8    10    1
   10     8    11    1
   11    11    12    1
   12    11    13    1
   13    11    14    1
   14    14    15    1
   15    14    16    1
   16    14    17    1
   17    17    18    1
   18    17    19    1
   19    17    20    1
@<TRIPOS>SUBSTRUCTURE
       1 MOL1            1 RESIDUE      1      MOL     
@<SCITEGIC>MOL_PROPERTY
VConf Rank
SciTegic.value.IntegerValue
535

@<SCITEGIC>MOL_PROPERTY
Conf_Id
SciTegic.value.IntegerValue
22

@<SCITEGIC>MOL_PROPERTY
Delta U+W
SciTegic.value.DoubleValue
0.731

@<SCITEGIC>MOL_PROPERTY
U+W
SciTegic.value.DoubleValue
-11.047

@<SCITEGIC>MOL_PROPERTY
Grad RMS
SciTegic.value.DoubleValue
0.000000

@<SCITEGIC>MOL_PROPERTY
U
SciTegic.value.DoubleValue
47.078

@<SCITEGIC>MOL_PROPERTY
W
SciTegic.value.DoubleValue
-58.125

@<SCITEGIC>MOL_PROPERTY
W(PB)
SciTegic.value.DoubleValue
-60.031

@<SCITEGIC>MOL_PROPERTY
W(SA)
SciTegic.value.DoubleValue
1.906

@<SCITEGIC>MOL_PROPERTY
Valence
SciTegic.value.DoubleValue
2.039

@<SCITEGIC>MOL_PROPERTY
Coulomb
SciTegic.value.DoubleValue
44.655

@<SCITEGIC>MOL_PROPERTY
VdW
SciTegic.value.DoubleValue
0.383

@<SCITEGIC>MOL_PROPERTY
VdW6
SciTegic.value.DoubleValue
-4.913

@<SCITEGIC>MOL_PROPERTY
VdW12
SciTegic.value.DoubleValue
5.296

@<SCITEGIC>MOL_PROPERTY
Bond
SciTegic.value.DoubleValue
0.159

@<SCITEGIC>MOL_PROPERTY
Angle
SciTegic.value.DoubleValue
0.856

@<SCITEGIC>MOL_PROPERTY
Pdih
SciTegic.value.DoubleValue
1.024

@<SCITEGIC>MOL_PROPERTY
Idih
SciTegic.value.DoubleValue
0.000

@<SCITEGIC>MOL_PROPERTY
Tether
SciTegic.value.DoubleValue
0.000

@<TRIPOS>MOLECULE
guest-s11_confgen4.mol2 : confsearch ligand conformer 536
          20          19           1
SMALL
USER_CHARGES
 
@<TRIPOS>ATOM
       1    N1      18.700063   17.350144   21.099334 N.4        1 MOL1        -0.5919
       2    H1      17.842186   17.295547   21.657367 H          1 MOL1         0.3682
       3    H2      18.431483   17.675442   20.165333 H          1 MOL1         0.3682
       4    H3      19.046336   16.390985   20.991615 H          1 MOL1         0.3682
       5    C1      19.734800   18.254406   21.738269 C.3        1 MOL1         0.0252
       6    H4      20.628262   18.244333   21.108174 H          1 MOL1         0.0971
       7    H5      19.990762   17.829459   22.711496 H          1 MOL1         0.0971
       8    C2      19.243188   19.701562   21.919186 C.3        1 MOL1        -0.1369
       9    H6      18.877414   20.073539   20.952871 H          1 MOL1         0.0997
      10    H7      18.382761   19.712753   22.601334 H          1 MOL1         0.0997
      11    C3      20.331785   20.674539   22.438978 C.3        1 MOL1        -0.1329
      12    H8      19.897787   21.684090   22.441202 H          1 MOL1         0.0997
      13    H9      21.172504   20.714783   21.732634 H          1 MOL1         0.0997
      14    C4      20.848567   20.372384   23.869652 C.3        1 MOL1        -0.1305
      15    H10     21.180451   21.317106   24.322925 H          1 MOL1         0.0997
      16    H11     20.027753   20.006597   24.502269 H          1 MOL1         0.0997
      17    C5      22.038641   19.385034   23.910905 C.3        1 MOL1        -0.2320
      18    H12     21.762462   18.385877   23.558366 H          1 MOL1         0.1008
      19    H13     22.871411   19.746103   23.293551 H          1 MOL1         0.1008
      20    H14     22.409994   19.277930   24.938334 H          1 MOL1         0.1008
@<TRIPOS>BOND
    1     1     2    1
    2     1     3    1
    3     1     4    1
    4     1     5    1
    5     5     6    1
    6     5     7    1
    7     5     8    1
    8     8     9    1
    9     8    10    1
   10     8    11    1
   11    11    12    1
   12    11    13    1
   13    11    14    1
   14    14    15    1
   15    14    16    1
   16    14    17    1
   17    17    18    1
   18    17    19    1
   19    17    20    1
@<TRIPOS>SUBSTRUCTURE
       1 MOL1            1 RESIDUE      1      MOL     
@<SCITEGIC>MOL_PROPERTY
VConf Rank
SciTegic.value.IntegerValue
536

@<SCITEGIC>MOL_PROPERTY
Conf_Id
SciTegic.value.IntegerValue
61

@<SCITEGIC>MOL_PROPERTY
Delta U+W
SciTegic.value.DoubleValue
2.669

@<SCITEGIC>MOL_PROPERTY
U+W
SciTegic.value.DoubleValue
-9.108

@<SCITEGIC>MOL_PROPERTY
Grad RMS
SciTegic.value.DoubleValue
0.000000

@<SCITEGIC>MOL_PROPERTY
U
SciTegic.value.DoubleValue
48.916

@<SCITEGIC>MOL_PROPERTY
W
SciTegic.value.DoubleValue
-58.025

@<SCITEGIC>MOL_PROPERTY
W(PB)
SciTegic.value.DoubleValue
-59.935

@<SCITEGIC>MOL_PROPERTY
W(SA)
SciTegic.value.DoubleValue
1.911

@<SCITEGIC>MOL_PROPERTY
Valence
SciTegic.value.DoubleValue
3.785

@<SCITEGIC>MOL_PROPERTY
Coulomb
SciTegic.value.DoubleValue
44.716

@<SCITEGIC>MOL_PROPERTY
VdW
SciTegic.value.DoubleValue
0.415

@<SCITEGIC>MOL_PROPERTY
VdW6
SciTegic.value.DoubleValue
-4.836

@<SCITEGIC>MOL_PROPERTY
VdW12
SciTegic.value.DoubleValue
5.251

@<SCITEGIC>MOL_PROPERTY
Bond
SciTegic.value.DoubleValue
0.175

@<SCITEGIC>MOL_PROPERTY
Angle
SciTegic.value.DoubleValue
1.195

@<SCITEGIC>MOL_PROPERTY
Pdih
SciTegic.value.DoubleValue
2.415

@<SCITEGIC>MOL_PROPERTY
Idih
SciTegic.value.DoubleValue
0.000

@<SCITEGIC>MOL_PROPERTY
Tether
SciTegic.value.DoubleValue
0.000

@<TRIPOS>MOLECULE
guest-s11_confgen4.mol2 : confsearch ligand conformer 537
          20          19           1
SMALL
USER_CHARGES
 
@<TRIPOS>ATOM
       1    N1      22.192719   18.654977   21.486765 N.4        1 MOL1        -0.5919
       2    H1      22.829086   17.932341   21.133954 H          1 MOL1         0.3682
       3    H2      22.708800   19.540157   21.466326 H          1 MOL1         0.3682
       4    H3      22.005490   18.437096   22.468854 H          1 MOL1         0.3682
       5    C1      20.917426   18.728313   20.668950 C.3        1 MOL1         0.0252
       6    H4      20.440086   17.744750   20.678327 H          1 MOL1         0.0971
       7    H5      21.212075   18.950943   19.639786 H          1 MOL1         0.0971
       8    C2      19.916184   19.801220   21.146297 C.3        1 MOL1        -0.1369
       9    H6      20.448835   20.727934   21.397890 H          1 MOL1         0.0997
      10    H7      19.264341   20.049937   20.298293 H          1 MOL1         0.0997
      11    C3      19.012135   19.360062   22.326062 C.3        1 MOL1        -0.1329
      12    H8      18.443097   18.465681   22.036675 H          1 MOL1         0.0997
      13    H9      18.269462   20.150710   22.501545 H          1 MOL1         0.0997
      14    C4      19.769399   19.084681   23.646299 C.3        1 MOL1        -0.1305
      15    H10     20.408492   18.199701   23.535746 H          1 MOL1         0.0997
      16    H11     20.424352   19.934163   23.885796 H          1 MOL1         0.0997
      17    C5      18.796214   18.844325   24.820249 C.3        1 MOL1        -0.2320
      18    H12     19.348788   18.641019   25.746736 H          1 MOL1         0.1008
      19    H13     18.161037   19.722735   24.993941 H          1 MOL1         0.1008
      20    H14     18.143280   17.984286   24.622057 H          1 MOL1         0.1008
@<TRIPOS>BOND
    1     1     2    1
    2     1     3    1
    3     1     4    1
    4     1     5    1
    5     5     6    1
    6     5     7    1
    7     5     8    1
    8     8     9    1
    9     8    10    1
   10     8    11    1
   11    11    12    1
   12    11    13    1
   13    11    14    1
   14    14    15    1
   15    14    16    1
   16    14    17    1
   17    17    18    1
   18    17    19    1
   19    17    20    1
@<TRIPOS>SUBSTRUCTURE
       1 MOL1            1 RESIDUE      1      MOL     
@<SCITEGIC>MOL_PROPERTY
VConf Rank
SciTegic.value.IntegerValue
537

@<SCITEGIC>MOL_PROPERTY
Conf_Id
SciTegic.value.IntegerValue
69

@<SCITEGIC>MOL_PROPERTY
Delta U+W
SciTegic.value.DoubleValue
2.811

@<SCITEGIC>MOL_PROPERTY
U+W
SciTegic.value.DoubleValue
-8.967

@<SCITEGIC>MOL_PROPERTY
Grad RMS
SciTegic.value.DoubleValue
0.000000

@<SCITEGIC>MOL_PROPERTY
U
SciTegic.value.DoubleValue
49.216

@<SCITEGIC>MOL_PROPERTY
W
SciTegic.value.DoubleValue
-58.183

@<SCITEGIC>MOL_PROPERTY
W(PB)
SciTegic.value.DoubleValue
-60.064

@<SCITEGIC>MOL_PROPERTY
W(SA)
SciTegic.value.DoubleValue
1.881

@<SCITEGIC>MOL_PROPERTY
Valence
SciTegic.value.DoubleValue
2.929

@<SCITEGIC>MOL_PROPERTY
Coulomb
SciTegic.value.DoubleValue
46.006

@<SCITEGIC>MOL_PROPERTY
VdW
SciTegic.value.DoubleValue
0.281

@<SCITEGIC>MOL_PROPERTY
VdW6
SciTegic.value.DoubleValue
-4.909

@<SCITEGIC>MOL_PROPERTY
VdW12
SciTegic.value.DoubleValue
5.190

@<SCITEGIC>MOL_PROPERTY
Bond
SciTegic.value.DoubleValue
0.156

@<SCITEGIC>MOL_PROPERTY
Angle
SciTegic.value.DoubleValue
0.974

@<SCITEGIC>MOL_PROPERTY
Pdih
SciTegic.value.DoubleValue
1.799

@<SCITEGIC>MOL_PROPERTY
Idih
SciTegic.value.DoubleValue
0.000

@<SCITEGIC>MOL_PROPERTY
Tether
SciTegic.value.DoubleValue
0.000

@<TRIPOS>MOLECULE
guest-s11_confgen4.mol2 : confsearch ligand conformer 538
          20          19           1
SMALL
USER_CHARGES
 
@<TRIPOS>ATOM
       1    N1      20.253339   18.601113   20.207890 N.4        1 MOL1        -0.5919
       2    H1      20.786579   18.105700   20.927090 H          1 MOL1         0.3682
       3    H2      19.451503   18.010759   19.965310 H          1 MOL1         0.3682
       4    H3      20.847592   18.651777   19.373661 H          1 MOL1         0.3682
       5    C1      19.818192   19.977998   20.672008 C.3        1 MOL1         0.0252
       6    H4      19.271058   20.434808   19.842836 H          1 MOL1         0.0971
       7    H5      20.710700   20.580702   20.860469 H          1 MOL1         0.0971
       8    C2      18.916096   19.971847   21.924071 C.3        1 MOL1        -0.1369
       9    H6      18.346566   20.910718   21.929432 H          1 MOL1         0.0997
      10    H7      18.171081   19.168794   21.847435 H          1 MOL1         0.0997
      11    C3      19.680727   19.873223   23.269205 C.3        1 MOL1        -0.1329
      12    H8      18.954322   19.994440   24.084755 H          1 MOL1         0.0997
      13    H9      20.379957   20.716486   23.355519 H          1 MOL1         0.0997
      14    C4      20.446286   18.545264   23.475979 C.3        1 MOL1        -0.1305
      15    H10     19.777228   17.694425   23.285249 H          1 MOL1         0.0997
      16    H11     21.276792   18.474886   22.762425 H          1 MOL1         0.0997
      17    C5      21.016690   18.434793   24.906172 C.3        1 MOL1        -0.2320
      18    H12     20.214548   18.460708   25.655252 H          1 MOL1         0.1008
      19    H13     21.564689   17.492167   25.033465 H          1 MOL1         0.1008
      20    H14     21.710127   19.258777   25.119396 H          1 MOL1         0.1008
@<TRIPOS>BOND
    1     1     2    1
    2     1     3    1
    3     1     4    1
    4     1     5    1
    5     5     6    1
    6     5     7    1
    7     5     8    1
    8     8     9    1
    9     8    10    1
   10     8    11    1
   11    11    12    1
   12    11    13    1
   13    11    14    1
   14    14    15    1
   15    14    16    1
   16    14    17    1
   17    17    18    1
   18    17    19    1
   19    17    20    1
@<TRIPOS>SUBSTRUCTURE
       1 MOL1            1 RESIDUE      1      MOL     
@<SCITEGIC>MOL_PROPERTY
VConf Rank
SciTegic.value.IntegerValue
538

@<SCITEGIC>MOL_PROPERTY
Conf_Id
SciTegic.value.IntegerValue
26

@<SCITEGIC>MOL_PROPERTY
Delta U+W
SciTegic.value.DoubleValue
2.809

@<SCITEGIC>MOL_PROPERTY
U+W
SciTegic.value.DoubleValue
-8.969

@<SCITEGIC>MOL_PROPERTY
Grad RMS
SciTegic.value.DoubleValue
0.000000

@<SCITEGIC>MOL_PROPERTY
U
SciTegic.value.DoubleValue
49.216

@<SCITEGIC>MOL_PROPERTY
W
SciTegic.value.DoubleValue
-58.185

@<SCITEGIC>MOL_PROPERTY
W(PB)
SciTegic.value.DoubleValue
-60.088

@<SCITEGIC>MOL_PROPERTY
W(SA)
SciTegic.value.DoubleValue
1.903

@<SCITEGIC>MOL_PROPERTY
Valence
SciTegic.value.DoubleValue
2.929

@<SCITEGIC>MOL_PROPERTY
Coulomb
SciTegic.value.DoubleValue
46.006

@<SCITEGIC>MOL_PROPERTY
VdW
SciTegic.value.DoubleValue
0.281

@<SCITEGIC>MOL_PROPERTY
VdW6
SciTegic.value.DoubleValue
-4.909

@<SCITEGIC>MOL_PROPERTY
VdW12
SciTegic.value.DoubleValue
5.190

@<SCITEGIC>MOL_PROPERTY
Bond
SciTegic.value.DoubleValue
0.156

@<SCITEGIC>MOL_PROPERTY
Angle
SciTegic.value.DoubleValue
0.974

@<SCITEGIC>MOL_PROPERTY
Pdih
SciTegic.value.DoubleValue
1.799

@<SCITEGIC>MOL_PROPERTY
Idih
SciTegic.value.DoubleValue
0.000

@<SCITEGIC>MOL_PROPERTY
Tether
SciTegic.value.DoubleValue
0.000

@<TRIPOS>MOLECULE
guest-s11_confgen4.mol2 : confsearch ligand conformer 539
          20          19           1
SMALL
USER_CHARGES
 
@<TRIPOS>ATOM
       1    N1      20.014959   17.717106   24.392042 N.4        1 MOL1        -0.5919
       2    H1      19.180492   18.310550   24.412724 H          1 MOL1         0.3682
       3    H2      19.698625   16.755243   24.234594 H          1 MOL1         0.3682
       4    H3      20.427637   17.745734   25.330224 H          1 MOL1         0.3682
       5    C1      20.998110   18.168299   23.329574 C.3        1 MOL1         0.0252
       6    H4      21.872152   17.513721   23.385141 H          1 MOL1         0.0971
       7    H5      21.319528   19.184275   23.573327 H          1 MOL1         0.0971
       8    C2      20.423335   18.134125   21.898925 C.3        1 MOL1        -0.1369
       9    H6      21.219210   18.399891   21.191477 H          1 MOL1         0.0997
      10    H7      20.135234   17.103742   21.652050 H          1 MOL1         0.0997
      11    C3      19.204152   19.069833   21.686698 C.3        1 MOL1        -0.1329
      12    H8      18.355192   18.700270   22.277374 H          1 MOL1         0.0997
      13    H9      18.886382   19.003786   20.637003 H          1 MOL1         0.0997
      14    C4      19.455591   20.556920   22.045003 C.3        1 MOL1        -0.1305
      15    H10     18.526325   21.119636   21.878672 H          1 MOL1         0.0997
      16    H11     19.681297   20.657454   23.115258 H          1 MOL1         0.0997
      17    C5      20.585507   21.205285   21.213284 C.3        1 MOL1        -0.2320
      18    H12     20.392014   21.103668   20.137553 H          1 MOL1         0.1008
      19    H13     20.664006   22.276354   21.440294 H          1 MOL1         0.1008
      20    H14     21.559123   20.749501   21.432223 H          1 MOL1         0.1008
@<TRIPOS>BOND
    1     1     2    1
    2     1     3    1
    3     1     4    1
    4     1     5    1
    5     5     6    1
    6     5     7    1
    7     5     8    1
    8     8     9    1
    9     8    10    1
   10     8    11    1
   11    11    12    1
   12    11    13    1
   13    11    14    1
   14    14    15    1
   15    14    16    1
   16    14    17    1
   17    17    18    1
   18    17    19    1
   19    17    20    1
@<TRIPOS>SUBSTRUCTURE
       1 MOL1            1 RESIDUE      1      MOL     
@<SCITEGIC>MOL_PROPERTY
VConf Rank
SciTegic.value.IntegerValue
539

@<SCITEGIC>MOL_PROPERTY
Conf_Id
SciTegic.value.IntegerValue
2

@<SCITEGIC>MOL_PROPERTY
Delta U+W
SciTegic.value.DoubleValue
0.994

@<SCITEGIC>MOL_PROPERTY
U+W
SciTegic.value.DoubleValue
-10.784

@<SCITEGIC>MOL_PROPERTY
Grad RMS
SciTegic.value.DoubleValue
0.000000

@<SCITEGIC>MOL_PROPERTY
U
SciTegic.value.DoubleValue
47.562

@<SCITEGIC>MOL_PROPERTY
W
SciTegic.value.DoubleValue
-58.346

@<SCITEGIC>MOL_PROPERTY
W(PB)
SciTegic.value.DoubleValue
-60.221

@<SCITEGIC>MOL_PROPERTY
W(SA)
SciTegic.value.DoubleValue
1.875

@<SCITEGIC>MOL_PROPERTY
Valence
SciTegic.value.DoubleValue
2.149

@<SCITEGIC>MOL_PROPERTY
Coulomb
SciTegic.value.DoubleValue
45.034

@<SCITEGIC>MOL_PROPERTY
VdW
SciTegic.value.DoubleValue
0.378

@<SCITEGIC>MOL_PROPERTY
VdW6
SciTegic.value.DoubleValue
-5.599

@<SCITEGIC>MOL_PROPERTY
VdW12
SciTegic.value.DoubleValue
5.977

@<SCITEGIC>MOL_PROPERTY
Bond
SciTegic.value.DoubleValue
0.185

@<SCITEGIC>MOL_PROPERTY
Angle
SciTegic.value.DoubleValue
0.935

@<SCITEGIC>MOL_PROPERTY
Pdih
SciTegic.value.DoubleValue
1.028

@<SCITEGIC>MOL_PROPERTY
Idih
SciTegic.value.DoubleValue
0.000

@<SCITEGIC>MOL_PROPERTY
Tether
SciTegic.value.DoubleValue
0.000

@<TRIPOS>MOLECULE
guest-s11_confgen4.mol2 : confsearch ligand conformer 540
          20          19           1
SMALL
USER_CHARGES
 
@<TRIPOS>ATOM
       1    N1      19.770243   16.725032   22.094998 N.4        1 MOL1        -0.5919
       2    H1      19.718964   16.123428   22.922936 H          1 MOL1         0.3682
       3    H2      18.867467   17.201281   22.010598 H          1 MOL1         0.3682
       4    H3      19.861254   16.106822   21.282077 H          1 MOL1         0.3682
       5    C1      20.918541   17.711102   22.184860 C.3        1 MOL1         0.0252
       6    H4      20.937213   18.296189   21.261683 H          1 MOL1         0.0971
       7    H5      21.847176   17.136649   22.240964 H          1 MOL1         0.0971
       8    C2      20.828521   18.658112   23.398678 C.3        1 MOL1        -0.1369
       9    H6      20.844726   18.062517   24.320981 H          1 MOL1         0.0997
      10    H7      21.731521   19.281172   23.429008 H          1 MOL1         0.0997
      11    C3      19.569822   19.565124   23.398786 C.3        1 MOL1        -0.1329
      12    H8      19.608897   20.223857   24.277275 H          1 MOL1         0.0997
      13    H9      18.674203   18.943900   23.533525 H          1 MOL1         0.0997
      14    C4      19.392758   20.431878   22.125828 C.3        1 MOL1        -0.1305
      15    H10     19.254592   19.790381   21.244983 H          1 MOL1         0.0997
      16    H11     18.465344   21.013393   22.223775 H          1 MOL1         0.0997
      17    C5      20.567125   21.405987   21.879226 C.3        1 MOL1        -0.2320
      18    H12     21.498014   20.867703   21.661744 H          1 MOL1         0.1008
      19    H13     20.353671   22.056187   21.020993 H          1 MOL1         0.1008
      20    H14     20.737159   22.048559   22.752810 H          1 MOL1         0.1008
@<TRIPOS>BOND
    1     1     2    1
    2     1     3    1
    3     1     4    1
    4     1     5    1
    5     5     6    1
    6     5     7    1
    7     5     8    1
    8     8     9    1
    9     8    10    1
   10     8    11    1
   11    11    12    1
   12    11    13    1
   13    11    14    1
   14    14    15    1
   15    14    16    1
   16    14    17    1
   17    17    18    1
   18    17    19    1
   19    17    20    1
@<TRIPOS>SUBSTRUCTURE
       1 MOL1            1 RESIDUE      1      MOL     
@<SCITEGIC>MOL_PROPERTY
VConf Rank
SciTegic.value.IntegerValue
540

@<SCITEGIC>MOL_PROPERTY
Conf_Id
SciTegic.value.IntegerValue
1

@<SCITEGIC>MOL_PROPERTY
Delta U+W
SciTegic.value.DoubleValue
1.032

@<SCITEGIC>MOL_PROPERTY
U+W
SciTegic.value.DoubleValue
-10.746

@<SCITEGIC>MOL_PROPERTY
Grad RMS
SciTegic.value.DoubleValue
0.000000

@<SCITEGIC>MOL_PROPERTY
U
SciTegic.value.DoubleValue
47.562

@<SCITEGIC>MOL_PROPERTY
W
SciTegic.value.DoubleValue
-58.308

@<SCITEGIC>MOL_PROPERTY
W(PB)
SciTegic.value.DoubleValue
-60.184

@<SCITEGIC>MOL_PROPERTY
W(SA)
SciTegic.value.DoubleValue
1.877

@<SCITEGIC>MOL_PROPERTY
Valence
SciTegic.value.DoubleValue
2.149

@<SCITEGIC>MOL_PROPERTY
Coulomb
SciTegic.value.DoubleValue
45.035

@<SCITEGIC>MOL_PROPERTY
VdW
SciTegic.value.DoubleValue
0.378

@<SCITEGIC>MOL_PROPERTY
VdW6
SciTegic.value.DoubleValue
-5.599

@<SCITEGIC>MOL_PROPERTY
VdW12
SciTegic.value.DoubleValue
5.978

@<SCITEGIC>MOL_PROPERTY
Bond
SciTegic.value.DoubleValue
0.185

@<SCITEGIC>MOL_PROPERTY
Angle
SciTegic.value.DoubleValue
0.935

@<SCITEGIC>MOL_PROPERTY
Pdih
SciTegic.value.DoubleValue
1.028

@<SCITEGIC>MOL_PROPERTY
Idih
SciTegic.value.DoubleValue
0.000

@<SCITEGIC>MOL_PROPERTY
Tether
SciTegic.value.DoubleValue
0.000

@<TRIPOS>MOLECULE
guest-s11_confgen4.mol2 : confsearch ligand conformer 541
          20          19           1
SMALL
USER_CHARGES
 
@<TRIPOS>ATOM
       1    N1      19.591298   20.848637   23.913647 N.4        1 MOL1        -0.5919
       2    H1      20.138004   21.017233   24.763811 H          1 MOL1         0.3682
       3    H2      20.112373   21.257283   23.132511 H          1 MOL1         0.3682
       4    H3      18.722326   21.384862   24.006904 H          1 MOL1         0.3682
       5    C1      19.321311   19.371773   23.699788 C.3        1 MOL1         0.0252
       6    H4      18.712551   19.268139   22.800236 H          1 MOL1         0.0971
       7    H5      18.728906   19.019986   24.548803 H          1 MOL1         0.0971
       8    C2      20.599742   18.514333   23.585225 C.3        1 MOL1        -0.1369
       9    H6      21.186735   18.654154   24.502672 H          1 MOL1         0.0997
      10    H7      20.324155   17.451682   23.564167 H          1 MOL1         0.0997
      11    C3      21.495704   18.844090   22.360956 C.3        1 MOL1        -0.1329
      12    H8      22.517190   18.511830   22.592462 H          1 MOL1         0.0997
      13    H9      21.567905   19.929527   22.214883 H          1 MOL1         0.0997
      14    C4      21.075073   18.158124   21.035606 C.3        1 MOL1        -0.1305
      15    H10     21.830901   18.390987   20.272425 H          1 MOL1         0.0997
      16    H11     21.097316   17.066414   21.159928 H          1 MOL1         0.0997
      17    C5      19.690532   18.586074   20.500970 C.3        1 MOL1        -0.2320
      18    H12     19.594007   19.679073   20.472743 H          1 MOL1         0.1008
      19    H13     19.542606   18.210264   19.480277 H          1 MOL1         0.1008
      20    H14     18.880653   18.176296   21.115976 H          1 MOL1         0.1008
@<TRIPOS>BOND
    1     1     2    1
    2     1     3    1
    3     1     4    1
    4     1     5    1
    5     5     6    1
    6     5     7    1
    7     5     8    1
    8     8     9    1
    9     8    10    1
   10     8    11    1
   11    11    12    1
   12    11    13    1
   13    11    14    1
   14    14    15    1
   15    14    16    1
   16    14    17    1
   17    17    18    1
   18    17    19    1
   19    17    20    1
@<TRIPOS>SUBSTRUCTURE
       1 MOL1            1 RESIDUE      1      MOL     
@<SCITEGIC>MOL_PROPERTY
VConf Rank
SciTegic.value.IntegerValue
541

@<SCITEGIC>MOL_PROPERTY
Conf_Id
SciTegic.value.IntegerValue
80

@<SCITEGIC>MOL_PROPERTY
Delta U+W
SciTegic.value.DoubleValue
2.920

@<SCITEGIC>MOL_PROPERTY
U+W
SciTegic.value.DoubleValue
-8.857

@<SCITEGIC>MOL_PROPERTY
Grad RMS
SciTegic.value.DoubleValue
0.000000

@<SCITEGIC>MOL_PROPERTY
U
SciTegic.value.DoubleValue
49.434

@<SCITEGIC>MOL_PROPERTY
W
SciTegic.value.DoubleValue
-58.292

@<SCITEGIC>MOL_PROPERTY
W(PB)
SciTegic.value.DoubleValue
-60.170

@<SCITEGIC>MOL_PROPERTY
W(SA)
SciTegic.value.DoubleValue
1.879

@<SCITEGIC>MOL_PROPERTY
Valence
SciTegic.value.DoubleValue
3.798

@<SCITEGIC>MOL_PROPERTY
Coulomb
SciTegic.value.DoubleValue
45.253

@<SCITEGIC>MOL_PROPERTY
VdW
SciTegic.value.DoubleValue
0.384

@<SCITEGIC>MOL_PROPERTY
VdW6
SciTegic.value.DoubleValue
-5.595

@<SCITEGIC>MOL_PROPERTY
VdW12
SciTegic.value.DoubleValue
5.979

@<SCITEGIC>MOL_PROPERTY
Bond
SciTegic.value.DoubleValue
0.198

@<SCITEGIC>MOL_PROPERTY
Angle
SciTegic.value.DoubleValue
1.368

@<SCITEGIC>MOL_PROPERTY
Pdih
SciTegic.value.DoubleValue
2.231

@<SCITEGIC>MOL_PROPERTY
Idih
SciTegic.value.DoubleValue
0.000

@<SCITEGIC>MOL_PROPERTY
Tether
SciTegic.value.DoubleValue
0.000

@<TRIPOS>MOLECULE
guest-s11_confgen4.mol2 : confsearch ligand conformer 542
          20          19           1
SMALL
USER_CHARGES
 
@<TRIPOS>ATOM
       1    N1      18.359600   17.798425   22.159485 N.4        1 MOL1        -0.5919
       2    H1      17.568332   17.862804   22.807436 H          1 MOL1         0.3682
       3    H2      18.044322   17.241288   21.358520 H          1 MOL1         0.3682
       4    H3      19.092413   17.258821   22.629061 H          1 MOL1         0.3682
       5    C1      18.853177   19.167618   21.733515 C.3        1 MOL1         0.0252
       6    H4      18.033425   19.662589   21.205751 H          1 MOL1         0.0971
       7    H5      19.670456   19.024852   21.024863 H          1 MOL1         0.0971
       8    C2      19.309856   20.059091   22.908014 C.3        1 MOL1        -0.1369
       9    H6      19.526439   21.068902   22.535198 H          1 MOL1         0.0997
      10    H7      18.464600   20.169484   23.600239 H          1 MOL1         0.0997
      11    C3      20.535452   19.520505   23.694249 C.3        1 MOL1        -0.1329
      12    H8      20.450181   18.437391   23.850173 H          1 MOL1         0.0997
      13    H9      20.511128   19.963249   24.699640 H          1 MOL1         0.0997
      14    C4      21.914937   19.859160   23.072658 C.3        1 MOL1        -0.1305
      15    H10     22.034428   20.949680   23.007309 H          1 MOL1         0.0997
      16    H11     22.697643   19.509924   23.760665 H          1 MOL1         0.0997
      17    C5      22.166630   19.230773   21.684239 C.3        1 MOL1        -0.2320
      18    H12     21.559154   19.714898   20.910516 H          1 MOL1         0.1008
      19    H13     23.217933   19.354906   21.393925 H          1 MOL1         0.1008
      20    H14     21.944421   18.155887   21.686422 H          1 MOL1         0.1008
@<TRIPOS>BOND
    1     1     2    1
    2     1     3    1
    3     1     4    1
    4     1     5    1
    5     5     6    1
    6     5     7    1
    7     5     8    1
    8     8     9    1
    9     8    10    1
   10     8    11    1
   11    11    12    1
   12    11    13    1
   13    11    14    1
   14    14    15    1
   15    14    16    1
   16    14    17    1
   17    17    18    1
   18    17    19    1
   19    17    20    1
@<TRIPOS>SUBSTRUCTURE
       1 MOL1            1 RESIDUE      1      MOL     
@<SCITEGIC>MOL_PROPERTY
VConf Rank
SciTegic.value.IntegerValue
542

@<SCITEGIC>MOL_PROPERTY
Conf_Id
SciTegic.value.IntegerValue
65

@<SCITEGIC>MOL_PROPERTY
Delta U+W
SciTegic.value.DoubleValue
2.949

@<SCITEGIC>MOL_PROPERTY
U+W
SciTegic.value.DoubleValue
-8.829

@<SCITEGIC>MOL_PROPERTY
Grad RMS
SciTegic.value.DoubleValue
0.000000

@<SCITEGIC>MOL_PROPERTY
U
SciTegic.value.DoubleValue
49.435

@<SCITEGIC>MOL_PROPERTY
W
SciTegic.value.DoubleValue
-58.263

@<SCITEGIC>MOL_PROPERTY
W(PB)
SciTegic.value.DoubleValue
-60.125

@<SCITEGIC>MOL_PROPERTY
W(SA)
SciTegic.value.DoubleValue
1.862

@<SCITEGIC>MOL_PROPERTY
Valence
SciTegic.value.DoubleValue
3.797

@<SCITEGIC>MOL_PROPERTY
Coulomb
SciTegic.value.DoubleValue
45.253

@<SCITEGIC>MOL_PROPERTY
VdW
SciTegic.value.DoubleValue
0.384

@<SCITEGIC>MOL_PROPERTY
VdW6
SciTegic.value.DoubleValue
-5.596

@<SCITEGIC>MOL_PROPERTY
VdW12
SciTegic.value.DoubleValue
5.980

@<SCITEGIC>MOL_PROPERTY
Bond
SciTegic.value.DoubleValue
0.198

@<SCITEGIC>MOL_PROPERTY
Angle
SciTegic.value.DoubleValue
1.369

@<SCITEGIC>MOL_PROPERTY
Pdih
SciTegic.value.DoubleValue
2.230

@<SCITEGIC>MOL_PROPERTY
Idih
SciTegic.value.DoubleValue
0.000

@<SCITEGIC>MOL_PROPERTY
Tether
SciTegic.value.DoubleValue
0.000

@<TRIPOS>MOLECULE
guest-s11_confgen4.mol2 : confsearch ligand conformer 543
          20          19           1
SMALL
USER_CHARGES
 
@<TRIPOS>ATOM
       1    N1      18.811326   20.688739   22.176526 N.4        1 MOL1        -0.5919
       2    H1      18.573634   21.365456   21.443560 H          1 MOL1         0.3682
       3    H2      18.668677   19.752261   21.786161 H          1 MOL1         0.3682
       4    H3      18.127376   20.812687   22.929688 H          1 MOL1         0.3682
       5    C1      20.232898   20.870647   22.672104 C.3        1 MOL1         0.0252
       6    H4      20.304183   21.885617   23.072446 H          1 MOL1         0.0971
       7    H5      20.913868   20.793490   21.820326 H          1 MOL1         0.0971
       8    C2      20.647937   19.867262   23.767263 C.3        1 MOL1        -0.1369
       9    H6      21.475485   20.314915   24.333462 H          1 MOL1         0.0997
      10    H7      19.827881   19.741855   24.486701 H          1 MOL1         0.0997
      11    C3      21.122823   18.482758   23.250067 C.3        1 MOL1        -0.1329
      12    H8      21.436455   17.895763   24.124479 H          1 MOL1         0.0997
      13    H9      22.027271   18.601947   22.637503 H          1 MOL1         0.0997
      14    C4      20.060950   17.660431   22.476294 C.3        1 MOL1        -0.1305
      15    H10     20.203157   16.596104   22.711334 H          1 MOL1         0.0997
      16    H11     19.050850   17.907961   22.829406 H          1 MOL1         0.0997
      17    C5      20.166261   17.823384   20.941310 C.3        1 MOL1        -0.2320
      18    H12     20.105661   18.870357   20.625448 H          1 MOL1         0.1008
      19    H13     21.121565   17.424686   20.575583 H          1 MOL1         0.1008
      20    H14     19.363170   17.269898   20.437447 H          1 MOL1         0.1008
@<TRIPOS>BOND
    1     1     2    1
    2     1     3    1
    3     1     4    1
    4     1     5    1
    5     5     6    1
    6     5     7    1
    7     5     8    1
    8     8     9    1
    9     8    10    1
   10     8    11    1
   11    11    12    1
   12    11    13    1
   13    11    14    1
   14    14    15    1
   15    14    16    1
   16    14    17    1
   17    17    18    1
   18    17    19    1
   19    17    20    1
@<TRIPOS>SUBSTRUCTURE
       1 MOL1            1 RESIDUE      1      MOL     
@<SCITEGIC>MOL_PROPERTY
VConf Rank
SciTegic.value.IntegerValue
543

@<SCITEGIC>MOL_PROPERTY
Conf_Id
SciTegic.value.IntegerValue
77

@<SCITEGIC>MOL_PROPERTY
Delta U+W
SciTegic.value.DoubleValue
5.366

@<SCITEGIC>MOL_PROPERTY
U+W
SciTegic.value.DoubleValue
-6.412

@<SCITEGIC>MOL_PROPERTY
Grad RMS
SciTegic.value.DoubleValue
0.000000

@<SCITEGIC>MOL_PROPERTY
U
SciTegic.value.DoubleValue
51.542

@<SCITEGIC>MOL_PROPERTY
W
SciTegic.value.DoubleValue
-57.954

@<SCITEGIC>MOL_PROPERTY
W(PB)
SciTegic.value.DoubleValue
-59.811

@<SCITEGIC>MOL_PROPERTY
W(SA)
SciTegic.value.DoubleValue
1.857

@<SCITEGIC>MOL_PROPERTY
Valence
SciTegic.value.DoubleValue
5.347

@<SCITEGIC>MOL_PROPERTY
Coulomb
SciTegic.value.DoubleValue
45.870

@<SCITEGIC>MOL_PROPERTY
VdW
SciTegic.value.DoubleValue
0.325

@<SCITEGIC>MOL_PROPERTY
VdW6
SciTegic.value.DoubleValue
-6.161

@<SCITEGIC>MOL_PROPERTY
VdW12
SciTegic.value.DoubleValue
6.486

@<SCITEGIC>MOL_PROPERTY
Bond
SciTegic.value.DoubleValue
0.201

@<SCITEGIC>MOL_PROPERTY
Angle
SciTegic.value.DoubleValue
1.484

@<SCITEGIC>MOL_PROPERTY
Pdih
SciTegic.value.DoubleValue
3.662

@<SCITEGIC>MOL_PROPERTY
Idih
SciTegic.value.DoubleValue
0.000

@<SCITEGIC>MOL_PROPERTY
Tether
SciTegic.value.DoubleValue
0.000

@<TRIPOS>MOLECULE
guest-s11_confgen4.mol2 : confsearch ligand conformer 544
          20          19           1
SMALL
USER_CHARGES
 
@<TRIPOS>ATOM
       1    N1      19.621639   17.287502   23.170126 N.4        1 MOL1        -0.5919
       2    H1      19.448532   17.265911   24.180064 H          1 MOL1         0.3682
       3    H2      18.960326   17.954961   22.761605 H          1 MOL1         0.3682
       4    H3      19.383001   16.358679   22.806778 H          1 MOL1         0.3682
       5    C1      21.055620   17.665402   22.853184 C.3        1 MOL1         0.0252
       6    H4      21.202205   17.609285   21.771258 H          1 MOL1         0.0971
       7    H5      21.695343   16.912504   23.321605 H          1 MOL1         0.0971
       8    C2      21.463510   19.061693   23.365440 C.3        1 MOL1        -0.1369
       9    H6      21.065831   19.217356   24.377087 H          1 MOL1         0.0997
      10    H7      22.556580   19.072480   23.469806 H          1 MOL1         0.0997
      11    C3      21.064322   20.246382   22.445100 C.3        1 MOL1        -0.1329
      12    H8      21.574092   20.155877   21.475870 H          1 MOL1         0.0997
      13    H9      21.461696   21.164084   22.900558 H          1 MOL1         0.0997
      14    C4      19.541527   20.438744   22.229196 C.3        1 MOL1        -0.1305
      15    H10     18.981101   20.080645   23.103239 H          1 MOL1         0.0997
      16    H11     19.330603   21.515573   22.164328 H          1 MOL1         0.0997
      17    C5      19.023546   19.776848   20.930193 C.3        1 MOL1        -0.2320
      18    H12     17.934797   19.889625   20.846012 H          1 MOL1         0.1008
      19    H13     19.473648   20.252251   20.048875 H          1 MOL1         0.1008
      20    H14     19.257956   18.708069   20.881635 H          1 MOL1         0.1008
@<TRIPOS>BOND
    1     1     2    1
    2     1     3    1
    3     1     4    1
    4     1     5    1
    5     5     6    1
    6     5     7    1
    7     5     8    1
    8     8     9    1
    9     8    10    1
   10     8    11    1
   11    11    12    1
   12    11    13    1
   13    11    14    1
   14    14    15    1
   15    14    16    1
   16    14    17    1
   17    17    18    1
   18    17    19    1
   19    17    20    1
@<TRIPOS>SUBSTRUCTURE
       1 MOL1            1 RESIDUE      1      MOL     
@<SCITEGIC>MOL_PROPERTY
VConf Rank
SciTegic.value.IntegerValue
544

@<SCITEGIC>MOL_PROPERTY
Conf_Id
SciTegic.value.IntegerValue
67

@<SCITEGIC>MOL_PROPERTY
Delta U+W
SciTegic.value.DoubleValue
5.353

@<SCITEGIC>MOL_PROPERTY
U+W
SciTegic.value.DoubleValue
-6.425

@<SCITEGIC>MOL_PROPERTY
Grad RMS
SciTegic.value.DoubleValue
0.000000

@<SCITEGIC>MOL_PROPERTY
U
SciTegic.value.DoubleValue
51.541

@<SCITEGIC>MOL_PROPERTY
W
SciTegic.value.DoubleValue
-57.966

@<SCITEGIC>MOL_PROPERTY
W(PB)
SciTegic.value.DoubleValue
-59.821

@<SCITEGIC>MOL_PROPERTY
W(SA)
SciTegic.value.DoubleValue
1.855

@<SCITEGIC>MOL_PROPERTY
Valence
SciTegic.value.DoubleValue
5.347

@<SCITEGIC>MOL_PROPERTY
Coulomb
SciTegic.value.DoubleValue
45.870

@<SCITEGIC>MOL_PROPERTY
VdW
SciTegic.value.DoubleValue
0.325

@<SCITEGIC>MOL_PROPERTY
VdW6
SciTegic.value.DoubleValue
-6.161

@<SCITEGIC>MOL_PROPERTY
VdW12
SciTegic.value.DoubleValue
6.486

@<SCITEGIC>MOL_PROPERTY
Bond
SciTegic.value.DoubleValue
0.201

@<SCITEGIC>MOL_PROPERTY
Angle
SciTegic.value.DoubleValue
1.485

@<SCITEGIC>MOL_PROPERTY
Pdih
SciTegic.value.DoubleValue
3.662

@<SCITEGIC>MOL_PROPERTY
Idih
SciTegic.value.DoubleValue
0.000

@<SCITEGIC>MOL_PROPERTY
Tether
SciTegic.value.DoubleValue
0.000

@<TRIPOS>MOLECULE
guest-s11_confgen4.mol2 : confsearch ligand conformer 545
          20          19           1
SMALL
USER_CHARGES
 
@<TRIPOS>ATOM
       1    N1      22.715632   19.936735   24.227192 N.4        1 MOL1        -0.5919
       2    H1      22.659517   19.180047   24.916149 H          1 MOL1         0.3682
       3    H2      23.711897   20.119988   24.067587 H          1 MOL1         0.3682
       4    H3      22.326396   20.775681   24.668838 H          1 MOL1         0.3682
       5    C1      21.994368   19.586834   22.941176 C.3        1 MOL1         0.0252
       6    H4      22.478716   18.705737   22.511533 H          1 MOL1         0.0971
       7    H5      22.120437   20.421105   22.245752 H          1 MOL1         0.0971
       8    C2      20.494985   19.305372   23.145852 C.3        1 MOL1        -0.1369
       9    H6      20.372845   18.477514   23.857050 H          1 MOL1         0.0997
      10    H7      20.015783   20.186971   23.592188 H          1 MOL1         0.0997
      11    C3      19.798086   18.953258   21.812781 C.3        1 MOL1        -0.1329
      12    H8      20.283392   18.074026   21.366441 H          1 MOL1         0.0997
      13    H9      19.926680   19.781465   21.101917 H          1 MOL1         0.0997
      14    C4      18.291745   18.668509   22.006155 C.3        1 MOL1        -0.1305
      15    H10     18.158608   17.839185   22.715058 H          1 MOL1         0.0997
      16    H11     17.801920   19.546403   22.450476 H          1 MOL1         0.0997
      17    C5      17.599713   18.317116   20.671766 C.3        1 MOL1        -0.2320
      18    H12     18.045490   17.421659   20.219380 H          1 MOL1         0.1008
      19    H13     16.531693   18.118334   20.829451 H          1 MOL1         0.1008
      20    H14     17.685890   19.142248   19.952778 H          1 MOL1         0.1008
@<TRIPOS>BOND
    1     1     2    1
    2     1     3    1
    3     1     4    1
    4     1     5    1
    5     5     6    1
    6     5     7    1
    7     5     8    1
    8     8     9    1
    9     8    10    1
   10     8    11    1
   11    11    12    1
   12    11    13    1
   13    11    14    1
   14    14    15    1
   15    14    16    1
   16    14    17    1
   17    17    18    1
   18    17    19    1
   19    17    20    1
@<TRIPOS>SUBSTRUCTURE
       1 MOL1            1 RESIDUE      1      MOL     
@<SCITEGIC>MOL_PROPERTY
VConf Rank
SciTegic.value.IntegerValue
545

@<SCITEGIC>MOL_PROPERTY
Conf_Id
SciTegic.value.IntegerValue
72

@<SCITEGIC>MOL_PROPERTY
Delta U+W
SciTegic.value.DoubleValue
0.000

@<SCITEGIC>MOL_PROPERTY
U+W
SciTegic.value.DoubleValue
-11.778

@<SCITEGIC>MOL_PROPERTY
Grad RMS
SciTegic.value.DoubleValue
0.000000

@<SCITEGIC>MOL_PROPERTY
U
SciTegic.value.DoubleValue
45.772

@<SCITEGIC>MOL_PROPERTY
W
SciTegic.value.DoubleValue
-57.550

@<SCITEGIC>MOL_PROPERTY
W(PB)
SciTegic.value.DoubleValue
-59.511

@<SCITEGIC>MOL_PROPERTY
W(SA)
SciTegic.value.DoubleValue
1.961

@<SCITEGIC>MOL_PROPERTY
Valence
SciTegic.value.DoubleValue
1.299

@<SCITEGIC>MOL_PROPERTY
Coulomb
SciTegic.value.DoubleValue
44.177

@<SCITEGIC>MOL_PROPERTY
VdW
SciTegic.value.DoubleValue
0.297

@<SCITEGIC>MOL_PROPERTY
VdW6
SciTegic.value.DoubleValue
-3.490

@<SCITEGIC>MOL_PROPERTY
VdW12
SciTegic.value.DoubleValue
3.786

@<SCITEGIC>MOL_PROPERTY
Bond
SciTegic.value.DoubleValue
0.096

@<SCITEGIC>MOL_PROPERTY
Angle
SciTegic.value.DoubleValue
0.381

@<SCITEGIC>MOL_PROPERTY
Pdih
SciTegic.value.DoubleValue
0.822

@<SCITEGIC>MOL_PROPERTY
Idih
SciTegic.value.DoubleValue
0.000

@<SCITEGIC>MOL_PROPERTY
Tether
SciTegic.value.DoubleValue
0.000

@<TRIPOS>MOLECULE
guest-s11_confgen4.mol2 : confsearch ligand conformer 546
          20          19           1
SMALL
USER_CHARGES
 
@<TRIPOS>ATOM
       1    N1      18.195306   17.150663   21.350355 N.4        1 MOL1        -0.5919
       2    H1      17.442959   17.479768   21.963543 H          1 MOL1         0.3682
       3    H2      18.054000   17.592223   20.436342 H          1 MOL1         0.3682
       4    H3      18.052677   16.143680   21.219114 H          1 MOL1         0.3682
       5    C1      19.565725   17.455481   21.920979 C.3        1 MOL1         0.0252
       6    H4      20.314554   17.051560   21.234250 H          1 MOL1         0.0971
       7    H5      19.657908   16.931401   22.876148 H          1 MOL1         0.0971
       8    C2      19.813214   18.960220   22.130214 C.3        1 MOL1        -0.1369
       9    H6      19.703977   19.484639   21.171641 H          1 MOL1         0.0997
      10    H7      19.046064   19.358241   22.806326 H          1 MOL1         0.0997
      11    C3      21.222525   19.224533   22.710826 C.3        1 MOL1        -0.1329
      12    H8      21.971835   18.752712   22.059933 H          1 MOL1         0.0997
      13    H9      21.315974   18.738015   23.691720 H          1 MOL1         0.0997
      14    C4      21.563626   20.728676   22.844522 C.3        1 MOL1        -0.1305
      15    H10     22.611388   20.825801   23.161854 H          1 MOL1         0.0997
      16    H11     21.494692   21.214501   21.861111 H          1 MOL1         0.0997
      17    C5      20.665425   21.475210   23.857169 C.3        1 MOL1        -0.2320
      18    H12     20.694622   20.992150   24.842468 H          1 MOL1         0.1008
      19    H13     21.006008   22.511282   23.981707 H          1 MOL1         0.1008
      20    H14     19.621551   21.510139   23.521715 H          1 MOL1         0.1008
@<TRIPOS>BOND
    1     1     2    1
    2     1     3    1
    3     1     4    1
    4     1     5    1
    5     5     6    1
    6     5     7    1
    7     5     8    1
    8     8     9    1
    9     8    10    1
   10     8    11    1
   11    11    12    1
   12    11    13    1
   13    11    14    1
   14    14    15    1
   15    14    16    1
   16    14    17    1
   17    17    18    1
   18    17    19    1
   19    17    20    1
@<TRIPOS>SUBSTRUCTURE
       1 MOL1            1 RESIDUE      1      MOL     
@<SCITEGIC>MOL_PROPERTY
VConf Rank
SciTegic.value.IntegerValue
546

@<SCITEGIC>MOL_PROPERTY
Conf_Id
SciTegic.value.IntegerValue
42

@<SCITEGIC>MOL_PROPERTY
Delta U+W
SciTegic.value.DoubleValue
0.508

@<SCITEGIC>MOL_PROPERTY
U+W
SciTegic.value.DoubleValue
-11.270

@<SCITEGIC>MOL_PROPERTY
Grad RMS
SciTegic.value.DoubleValue
0.000000

@<SCITEGIC>MOL_PROPERTY
U
SciTegic.value.DoubleValue
46.486

@<SCITEGIC>MOL_PROPERTY
W
SciTegic.value.DoubleValue
-57.756

@<SCITEGIC>MOL_PROPERTY
W(PB)
SciTegic.value.DoubleValue
-59.705

@<SCITEGIC>MOL_PROPERTY
W(SA)
SciTegic.value.DoubleValue
1.949

@<SCITEGIC>MOL_PROPERTY
Valence
SciTegic.value.DoubleValue
1.806

@<SCITEGIC>MOL_PROPERTY
Coulomb
SciTegic.value.DoubleValue
44.248

@<SCITEGIC>MOL_PROPERTY
VdW
SciTegic.value.DoubleValue
0.433

@<SCITEGIC>MOL_PROPERTY
VdW6
SciTegic.value.DoubleValue
-4.089

@<SCITEGIC>MOL_PROPERTY
VdW12
SciTegic.value.DoubleValue
4.522

@<SCITEGIC>MOL_PROPERTY
Bond
SciTegic.value.DoubleValue
0.131

@<SCITEGIC>MOL_PROPERTY
Angle
SciTegic.value.DoubleValue
0.628

@<SCITEGIC>MOL_PROPERTY
Pdih
SciTegic.value.DoubleValue
1.047

@<SCITEGIC>MOL_PROPERTY
Idih
SciTegic.value.DoubleValue
0.000

@<SCITEGIC>MOL_PROPERTY
Tether
SciTegic.value.DoubleValue
0.000

@<TRIPOS>MOLECULE
guest-s11_confgen4.mol2 : confsearch ligand conformer 547
          20          19           1
SMALL
USER_CHARGES
 
@<TRIPOS>ATOM
       1    N1      18.929786   21.792148   22.292353 N.4        1 MOL1        -0.5919
       2    H1      19.635172   22.295913   22.839175 H          1 MOL1         0.3682
       3    H2      19.199591   21.871109   21.306805 H          1 MOL1         0.3682
       4    H3      18.048045   22.304301   22.401038 H          1 MOL1         0.3682
       5    C1      18.799201   20.347209   22.730167 C.3        1 MOL1         0.0252
       6    H4      18.013402   19.881958   22.128862 H          1 MOL1         0.0971
       7    H5      18.481056   20.339112   23.776214 H          1 MOL1         0.0971
       8    C2      20.106681   19.548876   22.580399 C.3        1 MOL1        -0.1369
       9    H6      20.425746   19.578726   21.530936 H          1 MOL1         0.0997
      10    H7      20.896904   20.028523   23.173104 H          1 MOL1         0.0997
      11    C3      19.928004   18.082679   23.040263 C.3        1 MOL1        -0.1329
      12    H8      19.169758   17.588940   22.416667 H          1 MOL1         0.0997
      13    H9      19.535682   18.075018   24.066795 H          1 MOL1         0.0997
      14    C4      21.239582   17.260848   23.008251 C.3        1 MOL1        -0.1305
      15    H10     21.993424   17.738342   23.649811 H          1 MOL1         0.0997
      16    H11     21.046513   16.271413   23.446066 H          1 MOL1         0.0997
      17    C5      21.812501   17.072349   21.584957 C.3        1 MOL1        -0.2320
      18    H12     22.134224   18.026524   21.149678 H          1 MOL1         0.1008
      19    H13     22.687089   16.409378   21.607697 H          1 MOL1         0.1008
      20    H14     21.067980   16.622049   20.915679 H          1 MOL1         0.1008
@<TRIPOS>BOND
    1     1     2    1
    2     1     3    1
    3     1     4    1
    4     1     5    1
    5     5     6    1
    6     5     7    1
    7     5     8    1
    8     8     9    1
    9     8    10    1
   10     8    11    1
   11    11    12    1
   12    11    13    1
   13    11    14    1
   14    14    15    1
   15    14    16    1
   16    14    17    1
   17    17    18    1
   18    17    19    1
   19    17    20    1
@<TRIPOS>SUBSTRUCTURE
       1 MOL1            1 RESIDUE      1      MOL     
@<SCITEGIC>MOL_PROPERTY
VConf Rank
SciTegic.value.IntegerValue
547

@<SCITEGIC>MOL_PROPERTY
Conf_Id
SciTegic.value.IntegerValue
41

@<SCITEGIC>MOL_PROPERTY
Delta U+W
SciTegic.value.DoubleValue
0.515

@<SCITEGIC>MOL_PROPERTY
U+W
SciTegic.value.DoubleValue
-11.263

@<SCITEGIC>MOL_PROPERTY
Grad RMS
SciTegic.value.DoubleValue
0.000000

@<SCITEGIC>MOL_PROPERTY
U
SciTegic.value.DoubleValue
46.486

@<SCITEGIC>MOL_PROPERTY
W
SciTegic.value.DoubleValue
-57.749

@<SCITEGIC>MOL_PROPERTY
W(PB)
SciTegic.value.DoubleValue
-59.685

@<SCITEGIC>MOL_PROPERTY
W(SA)
SciTegic.value.DoubleValue
1.936

@<SCITEGIC>MOL_PROPERTY
Valence
SciTegic.value.DoubleValue
1.806

@<SCITEGIC>MOL_PROPERTY
Coulomb
SciTegic.value.DoubleValue
44.248

@<SCITEGIC>MOL_PROPERTY
VdW
SciTegic.value.DoubleValue
0.433

@<SCITEGIC>MOL_PROPERTY
VdW6
SciTegic.value.DoubleValue
-4.089

@<SCITEGIC>MOL_PROPERTY
VdW12
SciTegic.value.DoubleValue
4.522

@<SCITEGIC>MOL_PROPERTY
Bond
SciTegic.value.DoubleValue
0.131

@<SCITEGIC>MOL_PROPERTY
Angle
SciTegic.value.DoubleValue
0.628

@<SCITEGIC>MOL_PROPERTY
Pdih
SciTegic.value.DoubleValue
1.047

@<SCITEGIC>MOL_PROPERTY
Idih
SciTegic.value.DoubleValue
0.000

@<SCITEGIC>MOL_PROPERTY
Tether
SciTegic.value.DoubleValue
0.000

@<TRIPOS>MOLECULE
guest-s11_confgen4.mol2 : confsearch ligand conformer 548
          20          19           1
SMALL
USER_CHARGES
 
@<TRIPOS>ATOM
       1    N1      17.847019   19.744654   21.055168 N.4        1 MOL1        -0.5919
       2    H1      16.868852   20.049545   21.013557 H          1 MOL1         0.3682
       3    H2      18.425253   20.578284   20.915003 H          1 MOL1         0.3682
       4    H3      18.001693   19.129834   20.250019 H          1 MOL1         0.3682
       5    C1      18.164620   19.050166   22.365504 C.3        1 MOL1         0.0252
       6    H4      17.481728   18.201879   22.463819 H          1 MOL1         0.0971
       7    H5      17.957104   19.749419   23.180012 H          1 MOL1         0.0971
       8    C2      19.618276   18.548413   22.470371 C.3        1 MOL1        -0.1369
       9    H6      19.708655   17.963987   23.394431 H          1 MOL1         0.0997
      10    H7      19.829007   17.860044   21.641257 H          1 MOL1         0.0997
      11    C3      20.651090   19.703554   22.478163 C.3        1 MOL1        -0.1329
      12    H8      20.447935   20.375482   23.323568 H          1 MOL1         0.0997
      13    H9      20.531664   20.306789   21.568519 H          1 MOL1         0.0997
      14    C4      22.119395   19.217267   22.545891 C.3        1 MOL1        -0.1305
      15    H10     22.331646   18.555450   21.694532 H          1 MOL1         0.0997
      16    H11     22.783400   20.085652   22.432114 H          1 MOL1         0.0997
      17    C5      22.469432   18.494327   23.866722 C.3        1 MOL1        -0.2320
      18    H12     21.920403   17.550151   23.968552 H          1 MOL1         0.1008
      19    H13     23.540618   18.257162   23.902236 H          1 MOL1         0.1008
      20    H14     22.236742   19.123691   24.735491 H          1 MOL1         0.1008
@<TRIPOS>BOND
    1     1     2    1
    2     1     3    1
    3     1     4    1
    4     1     5    1
    5     5     6    1
    6     5     7    1
    7     5     8    1
    8     8     9    1
    9     8    10    1
   10     8    11    1
   11    11    12    1
   12    11    13    1
   13    11    14    1
   14    14    15    1
   15    14    16    1
   16    14    17    1
   17    17    18    1
   18    17    19    1
   19    17    20    1
@<TRIPOS>SUBSTRUCTURE
       1 MOL1            1 RESIDUE      1      MOL     
@<SCITEGIC>MOL_PROPERTY
VConf Rank
SciTegic.value.IntegerValue
548

@<SCITEGIC>MOL_PROPERTY
Conf_Id
SciTegic.value.IntegerValue
33

@<SCITEGIC>MOL_PROPERTY
Delta U+W
SciTegic.value.DoubleValue
0.703

@<SCITEGIC>MOL_PROPERTY
U+W
SciTegic.value.DoubleValue
-11.075

@<SCITEGIC>MOL_PROPERTY
Grad RMS
SciTegic.value.DoubleValue
0.000000

@<SCITEGIC>MOL_PROPERTY
U
SciTegic.value.DoubleValue
47.080

@<SCITEGIC>MOL_PROPERTY
W
SciTegic.value.DoubleValue
-58.154

@<SCITEGIC>MOL_PROPERTY
W(PB)
SciTegic.value.DoubleValue
-60.053

@<SCITEGIC>MOL_PROPERTY
W(SA)
SciTegic.value.DoubleValue
1.899

@<SCITEGIC>MOL_PROPERTY
Valence
SciTegic.value.DoubleValue
1.943

@<SCITEGIC>MOL_PROPERTY
Coulomb
SciTegic.value.DoubleValue
44.572

@<SCITEGIC>MOL_PROPERTY
VdW
SciTegic.value.DoubleValue
0.565

@<SCITEGIC>MOL_PROPERTY
VdW6
SciTegic.value.DoubleValue
-4.575

@<SCITEGIC>MOL_PROPERTY
VdW12
SciTegic.value.DoubleValue
5.139

@<SCITEGIC>MOL_PROPERTY
Bond
SciTegic.value.DoubleValue
0.158

@<SCITEGIC>MOL_PROPERTY
Angle
SciTegic.value.DoubleValue
0.700

@<SCITEGIC>MOL_PROPERTY
Pdih
SciTegic.value.DoubleValue
1.085

@<SCITEGIC>MOL_PROPERTY
Idih
SciTegic.value.DoubleValue
0.000

@<SCITEGIC>MOL_PROPERTY
Tether
SciTegic.value.DoubleValue
0.000

@<TRIPOS>MOLECULE
guest-s11_confgen4.mol2 : confsearch ligand conformer 549
          20          19           1
SMALL
USER_CHARGES
 
@<TRIPOS>ATOM
       1    N1      19.305428   18.917963   25.090064 N.4        1 MOL1        -0.5919
       2    H1      18.567173   18.882392   25.800848 H          1 MOL1         0.3682
       3    H2      20.092823   18.370329   25.451033 H          1 MOL1         0.3682
       4    H3      19.615909   19.892176   25.031337 H          1 MOL1         0.3682
       5    C1      18.822061   18.396959   23.750261 C.3        1 MOL1         0.0252
       6    H4      17.971319   19.007108   23.434984 H          1 MOL1         0.0971
       7    H5      18.468375   17.373474   23.901870 H          1 MOL1         0.0971
       8    C2      19.901902   18.404854   22.650378 C.3        1 MOL1        -0.1369
       9    H6      20.762098   17.805682   22.977099 H          1 MOL1         0.0997
      10    H7      19.488035   17.904096   21.766316 H          1 MOL1         0.0997
      11    C3      20.362578   19.835711   22.274157 C.3        1 MOL1        -0.1329
      12    H8      20.742045   20.344894   23.169896 H          1 MOL1         0.0997
      13    H9      19.500728   20.422299   21.926888 H          1 MOL1         0.0997
      14    C4      21.473696   19.862215   21.196340 C.3        1 MOL1        -0.1305
      15    H10     21.819619   20.898080   21.072805 H          1 MOL1         0.0997
      16    H11     22.343615   19.288010   21.544759 H          1 MOL1         0.0997
      17    C5      21.012674   19.325503   19.821871 C.3        1 MOL1        -0.2320
      18    H12     20.124136   19.862676   19.465569 H          1 MOL1         0.1008
      19    H13     21.805185   19.455610   19.073575 H          1 MOL1         0.1008
      20    H14     20.774053   18.255704   19.865003 H          1 MOL1         0.1008
@<TRIPOS>BOND
    1     1     2    1
    2     1     3    1
    3     1     4    1
    4     1     5    1
    5     5     6    1
    6     5     7    1
    7     5     8    1
    8     8     9    1
    9     8    10    1
   10     8    11    1
   11    11    12    1
   12    11    13    1
   13    11    14    1
   14    14    15    1
   15    14    16    1
   16    14    17    1
   17    17    18    1
   18    17    19    1
   19    17    20    1
@<TRIPOS>SUBSTRUCTURE
       1 MOL1            1 RESIDUE      1      MOL     
@<SCITEGIC>MOL_PROPERTY
VConf Rank
SciTegic.value.IntegerValue
549

@<SCITEGIC>MOL_PROPERTY
Conf_Id
SciTegic.value.IntegerValue
24

@<SCITEGIC>MOL_PROPERTY
Delta U+W
SciTegic.value.DoubleValue
0.847

@<SCITEGIC>MOL_PROPERTY
U+W
SciTegic.value.DoubleValue
-10.931

@<SCITEGIC>MOL_PROPERTY
Grad RMS
SciTegic.value.DoubleValue
0.000000

@<SCITEGIC>MOL_PROPERTY
U
SciTegic.value.DoubleValue
47.080

@<SCITEGIC>MOL_PROPERTY
W
SciTegic.value.DoubleValue
-58.011

@<SCITEGIC>MOL_PROPERTY
W(PB)
SciTegic.value.DoubleValue
-59.914

@<SCITEGIC>MOL_PROPERTY
W(SA)
SciTegic.value.DoubleValue
1.903

@<SCITEGIC>MOL_PROPERTY
Valence
SciTegic.value.DoubleValue
1.943

@<SCITEGIC>MOL_PROPERTY
Coulomb
SciTegic.value.DoubleValue
44.572

@<SCITEGIC>MOL_PROPERTY
VdW
SciTegic.value.DoubleValue
0.565

@<SCITEGIC>MOL_PROPERTY
VdW6
SciTegic.value.DoubleValue
-4.575

@<SCITEGIC>MOL_PROPERTY
VdW12
SciTegic.value.DoubleValue
5.140

@<SCITEGIC>MOL_PROPERTY
Bond
SciTegic.value.DoubleValue
0.158

@<SCITEGIC>MOL_PROPERTY
Angle
SciTegic.value.DoubleValue
0.700

@<SCITEGIC>MOL_PROPERTY
Pdih
SciTegic.value.DoubleValue
1.085

@<SCITEGIC>MOL_PROPERTY
Idih
SciTegic.value.DoubleValue
0.000

@<SCITEGIC>MOL_PROPERTY
Tether
SciTegic.value.DoubleValue
0.000

@<TRIPOS>MOLECULE
guest-s11_confgen4.mol2 : confsearch ligand conformer 550
          20          19           1
SMALL
USER_CHARGES
 
@<TRIPOS>ATOM
       1    N1      19.096397   18.089876   20.207449 N.4        1 MOL1        -0.5919
       2    H1      19.618703   17.667641   19.432591 H          1 MOL1         0.3682
       3    H2      18.682142   17.319529   20.741472 H          1 MOL1         0.3682
       4    H3      18.322985   18.617997   19.791240 H          1 MOL1         0.3682
       5    C1      19.980612   18.966719   21.070952 C.3        1 MOL1         0.0252
       6    H4      20.409804   19.745104   20.434329 H          1 MOL1         0.0971
       7    H5      20.795863   18.347481   21.454220 H          1 MOL1         0.0971
       8    C2      19.225942   19.616536   22.246042 C.3        1 MOL1        -0.1369
       9    H6      18.384625   20.202203   21.852418 H          1 MOL1         0.0997
      10    H7      18.786974   18.836186   22.880720 H          1 MOL1         0.0997
      11    C3      20.127166   20.546429   23.096389 C.3        1 MOL1        -0.1329
      12    H8      19.525449   20.983385   23.905257 H          1 MOL1         0.0997
      13    H9      20.455605   21.390760   22.474516 H          1 MOL1         0.0997
      14    C4      21.376478   19.861421   23.707296 C.3        1 MOL1        -0.1305
      15    H10     22.045017   19.510096   22.909546 H          1 MOL1         0.0997
      16    H11     21.948086   20.612984   24.269701 H          1 MOL1         0.0997
      17    C5      21.033238   18.687529   24.652373 C.3        1 MOL1        -0.2320
      18    H12     21.942606   18.299047   25.128856 H          1 MOL1         0.1008
      19    H13     20.348461   19.008372   25.448058 H          1 MOL1         0.1008
      20    H14     20.565129   17.856996   24.109487 H          1 MOL1         0.1008
@<TRIPOS>BOND
    1     1     2    1
    2     1     3    1
    3     1     4    1
    4     1     5    1
    5     5     6    1
    6     5     7    1
    7     5     8    1
    8     8     9    1
    9     8    10    1
   10     8    11    1
   11    11    12    1
   12    11    13    1
   13    11    14    1
   14    14    15    1
   15    14    16    1
   16    14    17    1
   17    17    18    1
   18    17    19    1
   19    17    20    1
@<TRIPOS>SUBSTRUCTURE
       1 MOL1            1 RESIDUE      1      MOL     
@<SCITEGIC>MOL_PROPERTY
VConf Rank
SciTegic.value.IntegerValue
550

@<SCITEGIC>MOL_PROPERTY
Conf_Id
SciTegic.value.IntegerValue
64

@<SCITEGIC>MOL_PROPERTY
Delta U+W
SciTegic.value.DoubleValue
0.707

@<SCITEGIC>MOL_PROPERTY
U+W
SciTegic.value.DoubleValue
-11.070

@<SCITEGIC>MOL_PROPERTY
Grad RMS
SciTegic.value.DoubleValue
0.000000

@<SCITEGIC>MOL_PROPERTY
U
SciTegic.value.DoubleValue
47.077

@<SCITEGIC>MOL_PROPERTY
W
SciTegic.value.DoubleValue
-58.148

@<SCITEGIC>MOL_PROPERTY
W(PB)
SciTegic.value.DoubleValue
-60.054

@<SCITEGIC>MOL_PROPERTY
W(SA)
SciTegic.value.DoubleValue
1.906

@<SCITEGIC>MOL_PROPERTY
Valence
SciTegic.value.DoubleValue
2.039

@<SCITEGIC>MOL_PROPERTY
Coulomb
SciTegic.value.DoubleValue
44.655

@<SCITEGIC>MOL_PROPERTY
VdW
SciTegic.value.DoubleValue
0.383

@<SCITEGIC>MOL_PROPERTY
VdW6
SciTegic.value.DoubleValue
-4.912

@<SCITEGIC>MOL_PROPERTY
VdW12
SciTegic.value.DoubleValue
5.295

@<SCITEGIC>MOL_PROPERTY
Bond
SciTegic.value.DoubleValue
0.159

@<SCITEGIC>MOL_PROPERTY
Angle
SciTegic.value.DoubleValue
0.856

@<SCITEGIC>MOL_PROPERTY
Pdih
SciTegic.value.DoubleValue
1.024

@<SCITEGIC>MOL_PROPERTY
Idih
SciTegic.value.DoubleValue
0.000

@<SCITEGIC>MOL_PROPERTY
Tether
SciTegic.value.DoubleValue
0.000

@<TRIPOS>MOLECULE
guest-s11_confgen4.mol2 : confsearch ligand conformer 551
          20          19           1
SMALL
USER_CHARGES
 
@<TRIPOS>ATOM
       1    N1      20.385986   21.783500   22.812702 N.4        1 MOL1        -0.5919
       2    H1      19.736293   22.173008   23.502985 H          1 MOL1         0.3682
       3    H2      21.296857   21.693458   23.273601 H          1 MOL1         0.3682
       4    H3      20.493888   22.488144   22.075598 H          1 MOL1         0.3682
       5    C1      19.897661   20.459956   22.259443 C.3        1 MOL1         0.0252
       6    H4      20.620064   20.121358   21.512133 H          1 MOL1         0.0971
       7    H5      18.941402   20.634856   21.759086 H          1 MOL1         0.0971
       8    C2      19.725332   19.378001   23.342170 C.3        1 MOL1        -0.1369
       9    H6      20.682629   19.208206   23.851294 H          1 MOL1         0.0997
      10    H7      19.030077   19.744890   24.108833 H          1 MOL1         0.0997
      11    C3      19.183026   18.042578   22.774240 C.3        1 MOL1        -0.1329
      12    H8      18.170328   18.207517   22.380880 H          1 MOL1         0.0997
      13    H9      19.073567   17.323541   23.597810 H          1 MOL1         0.0997
      14    C4      20.053687   17.407903   21.659627 C.3        1 MOL1        -0.1305
      15    H10     19.568100   16.482151   21.320408 H          1 MOL1         0.0997
      16    H11     20.088109   18.068335   20.782461 H          1 MOL1         0.0997
      17    C5      21.492275   17.076380   22.117411 C.3        1 MOL1        -0.2320
      18    H12     21.485293   16.433046   23.006821 H          1 MOL1         0.1008
      19    H13     22.035575   16.546471   21.324363 H          1 MOL1         0.1008
      20    H14     22.059067   17.985332   22.354455 H          1 MOL1         0.1008
@<TRIPOS>BOND
    1     1     2    1
    2     1     3    1
    3     1     4    1
    4     1     5    1
    5     5     6    1
    6     5     7    1
    7     5     8    1
    8     8     9    1
    9     8    10    1
   10     8    11    1
   11    11    12    1
   12    11    13    1
   13    11    14    1
   14    14    15    1
   15    14    16    1
   16    14    17    1
   17    17    18    1
   18    17    19    1
   19    17    20    1
@<TRIPOS>SUBSTRUCTURE
       1 MOL1            1 RESIDUE      1      MOL     
@<SCITEGIC>MOL_PROPERTY
VConf Rank
SciTegic.value.IntegerValue
551

@<SCITEGIC>MOL_PROPERTY
Conf_Id
SciTegic.value.IntegerValue
22

@<SCITEGIC>MOL_PROPERTY
Delta U+W
SciTegic.value.DoubleValue
0.731

@<SCITEGIC>MOL_PROPERTY
U+W
SciTegic.value.DoubleValue
-11.047

@<SCITEGIC>MOL_PROPERTY
Grad RMS
SciTegic.value.DoubleValue
0.000000

@<SCITEGIC>MOL_PROPERTY
U
SciTegic.value.DoubleValue
47.078

@<SCITEGIC>MOL_PROPERTY
W
SciTegic.value.DoubleValue
-58.125

@<SCITEGIC>MOL_PROPERTY
W(PB)
SciTegic.value.DoubleValue
-60.031

@<SCITEGIC>MOL_PROPERTY
W(SA)
SciTegic.value.DoubleValue
1.906

@<SCITEGIC>MOL_PROPERTY
Valence
SciTegic.value.DoubleValue
2.039

@<SCITEGIC>MOL_PROPERTY
Coulomb
SciTegic.value.DoubleValue
44.655

@<SCITEGIC>MOL_PROPERTY
VdW
SciTegic.value.DoubleValue
0.383

@<SCITEGIC>MOL_PROPERTY
VdW6
SciTegic.value.DoubleValue
-4.913

@<SCITEGIC>MOL_PROPERTY
VdW12
SciTegic.value.DoubleValue
5.296

@<SCITEGIC>MOL_PROPERTY
Bond
SciTegic.value.DoubleValue
0.159

@<SCITEGIC>MOL_PROPERTY
Angle
SciTegic.value.DoubleValue
0.856

@<SCITEGIC>MOL_PROPERTY
Pdih
SciTegic.value.DoubleValue
1.024

@<SCITEGIC>MOL_PROPERTY
Idih
SciTegic.value.DoubleValue
0.000

@<SCITEGIC>MOL_PROPERTY
Tether
SciTegic.value.DoubleValue
0.000

@<TRIPOS>MOLECULE
guest-s11_confgen4.mol2 : confsearch ligand conformer 552
          20          19           1
SMALL
USER_CHARGES
 
@<TRIPOS>ATOM
       1    N1      19.686374   16.506191   22.293728 N.4        1 MOL1        -0.5919
       2    H1      19.017421   16.468977   21.518195 H          1 MOL1         0.3682
       3    H2      20.512402   15.972864   22.004675 H          1 MOL1         0.3682
       4    H3      19.262891   15.996821   23.076478 H          1 MOL1         0.3682
       5    C1      20.036162   17.931344   22.672143 C.3        1 MOL1         0.0252
       6    H4      20.727862   17.896755   23.518163 H          1 MOL1         0.0971
       7    H5      19.116179   18.423954   22.994995 H          1 MOL1         0.0971
       8    C2      20.669360   18.725380   21.515753 C.3        1 MOL1        -0.1369
       9    H6      21.523256   18.157216   21.123357 H          1 MOL1         0.0997
      10    H7      19.948158   18.809335   20.691978 H          1 MOL1         0.0997
      11    C3      21.163985   20.137412   21.920011 C.3        1 MOL1        -0.1329
      12    H8      21.674448   20.570030   21.048334 H          1 MOL1         0.0997
      13    H9      21.929877   20.060497   22.704130 H          1 MOL1         0.0997
      14    C4      20.046951   21.120366   22.357307 C.3        1 MOL1        -0.1305
      15    H10     20.379039   22.143018   22.129264 H          1 MOL1         0.0997
      16    H11     19.139853   20.957536   21.758642 H          1 MOL1         0.0997
      17    C5      19.712244   21.057929   23.866250 C.3        1 MOL1        -0.2320
      18    H12     19.285987   20.092520   24.158079 H          1 MOL1         0.1008
      19    H13     20.608159   21.233123   24.475879 H          1 MOL1         0.1008
      20    H14     18.977999   21.831344   24.126434 H          1 MOL1         0.1008
@<TRIPOS>BOND
    1     1     2    1
    2     1     3    1
    3     1     4    1
    4     1     5    1
    5     5     6    1
    6     5     7    1
    7     5     8    1
    8     8     9    1
    9     8    10    1
   10     8    11    1
   11    11    12    1
   12    11    13    1
   13    11    14    1
   14    14    15    1
   15    14    16    1
   16    14    17    1
   17    17    18    1
   18    17    19    1
   19    17    20    1
@<TRIPOS>SUBSTRUCTURE
       1 MOL1            1 RESIDUE      1      MOL     
@<SCITEGIC>MOL_PROPERTY
VConf Rank
SciTegic.value.IntegerValue
552

@<SCITEGIC>MOL_PROPERTY
Conf_Id
SciTegic.value.IntegerValue
61

@<SCITEGIC>MOL_PROPERTY
Delta U+W
SciTegic.value.DoubleValue
2.669

@<SCITEGIC>MOL_PROPERTY
U+W
SciTegic.value.DoubleValue
-9.108

@<SCITEGIC>MOL_PROPERTY
Grad RMS
SciTegic.value.DoubleValue
0.000000

@<SCITEGIC>MOL_PROPERTY
U
SciTegic.value.DoubleValue
48.916

@<SCITEGIC>MOL_PROPERTY
W
SciTegic.value.DoubleValue
-58.025

@<SCITEGIC>MOL_PROPERTY
W(PB)
SciTegic.value.DoubleValue
-59.935

@<SCITEGIC>MOL_PROPERTY
W(SA)
SciTegic.value.DoubleValue
1.911

@<SCITEGIC>MOL_PROPERTY
Valence
SciTegic.value.DoubleValue
3.785

@<SCITEGIC>MOL_PROPERTY
Coulomb
SciTegic.value.DoubleValue
44.716

@<SCITEGIC>MOL_PROPERTY
VdW
SciTegic.value.DoubleValue
0.415

@<SCITEGIC>MOL_PROPERTY
VdW6
SciTegic.value.DoubleValue
-4.836

@<SCITEGIC>MOL_PROPERTY
VdW12
SciTegic.value.DoubleValue
5.251

@<SCITEGIC>MOL_PROPERTY
Bond
SciTegic.value.DoubleValue
0.175

@<SCITEGIC>MOL_PROPERTY
Angle
SciTegic.value.DoubleValue
1.195

@<SCITEGIC>MOL_PROPERTY
Pdih
SciTegic.value.DoubleValue
2.415

@<SCITEGIC>MOL_PROPERTY
Idih
SciTegic.value.DoubleValue
0.000

@<SCITEGIC>MOL_PROPERTY
Tether
SciTegic.value.DoubleValue
0.000

@<TRIPOS>MOLECULE
guest-s11_confgen4.mol2 : confsearch ligand conformer 553
          20          19           1
SMALL
USER_CHARGES
 
@<TRIPOS>ATOM
       1    N1      20.965887   17.181957   23.471863 N.4        1 MOL1        -0.5919
       2    H1      20.718907   16.305497   23.943520 H          1 MOL1         0.3682
       3    H2      21.980978   17.290964   23.561364 H          1 MOL1         0.3682
       4    H3      20.532516   17.941577   24.003079 H          1 MOL1         0.3682
       5    C1      20.525913   17.182010   22.020314 C.3        1 MOL1         0.0252
       6    H4      19.447671   17.005038   21.982727 H          1 MOL1         0.0971
       7    H5      21.023924   16.336987   21.537115 H          1 MOL1         0.0971
       8    C2      20.871991   18.473963   21.250533 C.3        1 MOL1        -0.1369
       9    H6      21.887978   18.803477   21.505495 H          1 MOL1         0.0997
      10    H7      20.895255   18.228539   20.180442 H          1 MOL1         0.0997
      11    C3      19.861882   19.633222   21.449451 C.3        1 MOL1        -0.1329
      12    H8      18.861457   19.305107   21.134877 H          1 MOL1         0.0997
      13    H9      20.142254   20.450828   20.770929 H          1 MOL1         0.0997
      14    C4      19.793726   20.183936   22.893189 C.3        1 MOL1        -0.1305
      15    H10     19.371255   19.426398   23.565130 H          1 MOL1         0.0997
      16    H11     20.806162   20.413938   23.253762 H          1 MOL1         0.0997
      17    C5      18.921896   21.455183   22.976035 C.3        1 MOL1        -0.2320
      18    H12     18.875948   21.827439   24.007716 H          1 MOL1         0.1008
      19    H13     19.330757   22.257107   22.347566 H          1 MOL1         0.1008
      20    H14     17.894939   21.251864   22.645443 H          1 MOL1         0.1008
@<TRIPOS>BOND
    1     1     2    1
    2     1     3    1
    3     1     4    1
    4     1     5    1
    5     5     6    1
    6     5     7    1
    7     5     8    1
    8     8     9    1
    9     8    10    1
   10     8    11    1
   11    11    12    1
   12    11    13    1
   13    11    14    1
   14    14    15    1
   15    14    16    1
   16    14    17    1
   17    17    18    1
   18    17    19    1
   19    17    20    1
@<TRIPOS>SUBSTRUCTURE
       1 MOL1            1 RESIDUE      1      MOL     
@<SCITEGIC>MOL_PROPERTY
VConf Rank
SciTegic.value.IntegerValue
553

@<SCITEGIC>MOL_PROPERTY
Conf_Id
SciTegic.value.IntegerValue
69

@<SCITEGIC>MOL_PROPERTY
Delta U+W
SciTegic.value.DoubleValue
2.811

@<SCITEGIC>MOL_PROPERTY
U+W
SciTegic.value.DoubleValue
-8.967

@<SCITEGIC>MOL_PROPERTY
Grad RMS
SciTegic.value.DoubleValue
0.000000

@<SCITEGIC>MOL_PROPERTY
U
SciTegic.value.DoubleValue
49.216

@<SCITEGIC>MOL_PROPERTY
W
SciTegic.value.DoubleValue
-58.183

@<SCITEGIC>MOL_PROPERTY
W(PB)
SciTegic.value.DoubleValue
-60.064

@<SCITEGIC>MOL_PROPERTY
W(SA)
SciTegic.value.DoubleValue
1.881

@<SCITEGIC>MOL_PROPERTY
Valence
SciTegic.value.DoubleValue
2.929

@<SCITEGIC>MOL_PROPERTY
Coulomb
SciTegic.value.DoubleValue
46.006

@<SCITEGIC>MOL_PROPERTY
VdW
SciTegic.value.DoubleValue
0.281

@<SCITEGIC>MOL_PROPERTY
VdW6
SciTegic.value.DoubleValue
-4.909

@<SCITEGIC>MOL_PROPERTY
VdW12
SciTegic.value.DoubleValue
5.190

@<SCITEGIC>MOL_PROPERTY
Bond
SciTegic.value.DoubleValue
0.156

@<SCITEGIC>MOL_PROPERTY
Angle
SciTegic.value.DoubleValue
0.974

@<SCITEGIC>MOL_PROPERTY
Pdih
SciTegic.value.DoubleValue
1.799

@<SCITEGIC>MOL_PROPERTY
Idih
SciTegic.value.DoubleValue
0.000

@<SCITEGIC>MOL_PROPERTY
Tether
SciTegic.value.DoubleValue
0.000

@<TRIPOS>MOLECULE
guest-s11_confgen4.mol2 : confsearch ligand conformer 554
          20          19           1
SMALL
USER_CHARGES
 
@<TRIPOS>ATOM
       1    N1      19.755954   17.513379   23.981814 N.4        1 MOL1        -0.5919
       2    H1      20.427956   17.401439   23.218328 H          1 MOL1         0.3682
       3    H2      20.290262   17.756243   24.821954 H          1 MOL1         0.3682
       4    H3      19.337522   16.592761   24.152168 H          1 MOL1         0.3682
       5    C1      18.703798   18.558224   23.662699 C.3        1 MOL1         0.0252
       6    H4      18.027669   18.601013   24.520939 H          1 MOL1         0.0971
       7    H5      18.128743   18.220759   22.796229 H          1 MOL1         0.0971
       8    C2      19.268397   19.970071   23.399267 C.3        1 MOL1        -0.1369
       9    H6      18.462088   20.691863   23.585689 H          1 MOL1         0.0997
      10    H7      20.055138   20.203173   24.129004 H          1 MOL1         0.0997
      11    C3      19.785303   20.198754   21.955562 C.3        1 MOL1        -0.1329
      12    H8      20.051579   21.259826   21.852114 H          1 MOL1         0.0997
      13    H9      18.969716   20.017818   21.241738 H          1 MOL1         0.0997
      14    C4      21.009936   19.336838   21.568666 C.3        1 MOL1        -0.1305
      15    H10     21.790431   19.430101   22.336828 H          1 MOL1         0.0997
      16    H11     20.724445   18.278594   21.518988 H          1 MOL1         0.0997
      17    C5      21.589117   19.754196   20.199952 C.3        1 MOL1        -0.2320
      18    H12     21.926030   20.798941   20.214743 H          1 MOL1         0.1008
      19    H13     22.450653   19.127243   19.935876 H          1 MOL1         0.1008
      20    H14     20.839337   19.648149   19.405059 H          1 MOL1         0.1008
@<TRIPOS>BOND
    1     1     2    1
    2     1     3    1
    3     1     4    1
    4     1     5    1
    5     5     6    1
    6     5     7    1
    7     5     8    1
    8     8     9    1
    9     8    10    1
   10     8    11    1
   11    11    12    1
   12    11    13    1
   13    11    14    1
   14    14    15    1
   15    14    16    1
   16    14    17    1
   17    17    18    1
   18    17    19    1
   19    17    20    1
@<TRIPOS>SUBSTRUCTURE
       1 MOL1            1 RESIDUE      1      MOL     
@<SCITEGIC>MOL_PROPERTY
VConf Rank
SciTegic.value.IntegerValue
554

@<SCITEGIC>MOL_PROPERTY
Conf_Id
SciTegic.value.IntegerValue
26

@<SCITEGIC>MOL_PROPERTY
Delta U+W
SciTegic.value.DoubleValue
2.809

@<SCITEGIC>MOL_PROPERTY
U+W
SciTegic.value.DoubleValue
-8.969

@<SCITEGIC>MOL_PROPERTY
Grad RMS
SciTegic.value.DoubleValue
0.000000

@<SCITEGIC>MOL_PROPERTY
U
SciTegic.value.DoubleValue
49.216

@<SCITEGIC>MOL_PROPERTY
W
SciTegic.value.DoubleValue
-58.185

@<SCITEGIC>MOL_PROPERTY
W(PB)
SciTegic.value.DoubleValue
-60.088

@<SCITEGIC>MOL_PROPERTY
W(SA)
SciTegic.value.DoubleValue
1.903

@<SCITEGIC>MOL_PROPERTY
Valence
SciTegic.value.DoubleValue
2.929

@<SCITEGIC>MOL_PROPERTY
Coulomb
SciTegic.value.DoubleValue
46.006

@<SCITEGIC>MOL_PROPERTY
VdW
SciTegic.value.DoubleValue
0.281

@<SCITEGIC>MOL_PROPERTY
VdW6
SciTegic.value.DoubleValue
-4.909

@<SCITEGIC>MOL_PROPERTY
VdW12
SciTegic.value.DoubleValue
5.190

@<SCITEGIC>MOL_PROPERTY
Bond
SciTegic.value.DoubleValue
0.156

@<SCITEGIC>MOL_PROPERTY
Angle
SciTegic.value.DoubleValue
0.974

@<SCITEGIC>MOL_PROPERTY
Pdih
SciTegic.value.DoubleValue
1.799

@<SCITEGIC>MOL_PROPERTY
Idih
SciTegic.value.DoubleValue
0.000

@<SCITEGIC>MOL_PROPERTY
Tether
SciTegic.value.DoubleValue
0.000

@<TRIPOS>MOLECULE
guest-s11_confgen4.mol2 : confsearch ligand conformer 555
          20          19           1
SMALL
USER_CHARGES
 
@<TRIPOS>ATOM
       1    N1      18.841713   17.744718   23.930791 N.4        1 MOL1        -0.5919
       2    H1      19.345497   17.133570   23.281454 H          1 MOL1         0.3682
       3    H2      19.221035   17.570488   24.866631 H          1 MOL1         0.3682
       4    H3      17.865233   17.432184   23.941638 H          1 MOL1         0.3682
       5    C1      18.962428   19.203728   23.536180 C.3        1 MOL1         0.0252
       6    H4      18.378750   19.791197   24.250119 H          1 MOL1         0.0971
       7    H5      18.512209   19.326904   22.547716 H          1 MOL1         0.0971
       8    C2      20.414922   19.721474   23.513944 C.3        1 MOL1        -0.1369
       9    H6      20.403828   20.796973   23.295516 H          1 MOL1         0.0997
      10    H7      20.846240   19.624631   24.519043 H          1 MOL1         0.0997
      11    C3      21.328672   18.992359   22.493921 C.3        1 MOL1        -0.1329
      12    H8      21.467901   17.950069   22.810868 H          1 MOL1         0.0997
      13    H9      22.327912   19.448113   22.525652 H          1 MOL1         0.0997
      14    C4      20.813317   19.007988   21.032005 C.3        1 MOL1        -0.1305
      15    H10     21.521398   18.448670   20.404602 H          1 MOL1         0.0997
      16    H11     19.857666   18.471324   20.959758 H          1 MOL1         0.0997
      17    C5      20.653587   20.432307   20.453522 C.3        1 MOL1        -0.2320
      18    H12     21.592103   20.996623   20.529009 H          1 MOL1         0.1008
      19    H13     20.373467   20.387497   19.393141 H          1 MOL1         0.1008
      20    H14     19.870994   20.994577   20.977929 H          1 MOL1         0.1008
@<TRIPOS>BOND
    1     1     2    1
    2     1     3    1
    3     1     4    1
    4     1     5    1
    5     5     6    1
    6     5     7    1
    7     5     8    1
    8     8     9    1
    9     8    10    1
   10     8    11    1
   11    11    12    1
   12    11    13    1
   13    11    14    1
   14    14    15    1
   15    14    16    1
   16    14    17    1
   17    17    18    1
   18    17    19    1
   19    17    20    1
@<TRIPOS>SUBSTRUCTURE
       1 MOL1            1 RESIDUE      1      MOL     
@<SCITEGIC>MOL_PROPERTY
VConf Rank
SciTegic.value.IntegerValue
555

@<SCITEGIC>MOL_PROPERTY
Conf_Id
SciTegic.value.IntegerValue
2

@<SCITEGIC>MOL_PROPERTY
Delta U+W
SciTegic.value.DoubleValue
0.994

@<SCITEGIC>MOL_PROPERTY
U+W
SciTegic.value.DoubleValue
-10.784

@<SCITEGIC>MOL_PROPERTY
Grad RMS
SciTegic.value.DoubleValue
0.000000

@<SCITEGIC>MOL_PROPERTY
U
SciTegic.value.DoubleValue
47.562

@<SCITEGIC>MOL_PROPERTY
W
SciTegic.value.DoubleValue
-58.346

@<SCITEGIC>MOL_PROPERTY
W(PB)
SciTegic.value.DoubleValue
-60.221

@<SCITEGIC>MOL_PROPERTY
W(SA)
SciTegic.value.DoubleValue
1.875

@<SCITEGIC>MOL_PROPERTY
Valence
SciTegic.value.DoubleValue
2.149

@<SCITEGIC>MOL_PROPERTY
Coulomb
SciTegic.value.DoubleValue
45.034

@<SCITEGIC>MOL_PROPERTY
VdW
SciTegic.value.DoubleValue
0.378

@<SCITEGIC>MOL_PROPERTY
VdW6
SciTegic.value.DoubleValue
-5.599

@<SCITEGIC>MOL_PROPERTY
VdW12
SciTegic.value.DoubleValue
5.977

@<SCITEGIC>MOL_PROPERTY
Bond
SciTegic.value.DoubleValue
0.185

@<SCITEGIC>MOL_PROPERTY
Angle
SciTegic.value.DoubleValue
0.935

@<SCITEGIC>MOL_PROPERTY
Pdih
SciTegic.value.DoubleValue
1.028

@<SCITEGIC>MOL_PROPERTY
Idih
SciTegic.value.DoubleValue
0.000

@<SCITEGIC>MOL_PROPERTY
Tether
SciTegic.value.DoubleValue
0.000

@<TRIPOS>MOLECULE
guest-s11_confgen4.mol2 : confsearch ligand conformer 556
          20          19           1
SMALL
USER_CHARGES
 
@<TRIPOS>ATOM
       1    N1      20.730879   21.183460   21.400888 N.4        1 MOL1        -0.5919
       2    H1      21.561296   21.198936   20.800715 H          1 MOL1         0.3682
       3    H2      19.971899   20.763193   20.856586 H          1 MOL1         0.3682
       4    H3      20.470742   22.159727   21.575644 H          1 MOL1         0.3682
       5    C1      20.981631   20.427162   22.690901 C.3        1 MOL1         0.0252
       6    H4      20.072665   20.476578   23.296103 H          1 MOL1         0.0971
       7    H5      21.777659   20.946066   23.231812 H          1 MOL1         0.0971
       8    C2      21.384325   18.953914   22.477208 C.3        1 MOL1        -0.1369
       9    H6      22.316173   18.916640   21.897631 H          1 MOL1         0.0997
      10    H7      21.619837   18.506665   23.451392 H          1 MOL1         0.0997
      11    C3      20.303267   18.102282   21.760947 C.3        1 MOL1        -0.1329
      12    H8      20.662867   17.066956   21.683571 H          1 MOL1         0.0997
      13    H9      20.189132   18.454643   20.727012 H          1 MOL1         0.0997
      14    C4      18.913706   18.103619   22.448083 C.3        1 MOL1        -0.1305
      15    H10     18.491199   19.117513   22.449927 H          1 MOL1         0.0997
      16    H11     18.225527   17.491293   21.848655 H          1 MOL1         0.0997
      17    C5      18.942928   17.551054   23.891224 C.3        1 MOL1        -0.2320
      18    H12     19.528332   18.196453   24.557831 H          1 MOL1         0.1008
      19    H13     17.926141   17.489910   24.300235 H          1 MOL1         0.1008
      20    H14     19.377006   16.543212   23.919362 H          1 MOL1         0.1008
@<TRIPOS>BOND
    1     1     2    1
    2     1     3    1
    3     1     4    1
    4     1     5    1
    5     5     6    1
    6     5     7    1
    7     5     8    1
    8     8     9    1
    9     8    10    1
   10     8    11    1
   11    11    12    1
   12    11    13    1
   13    11    14    1
   14    14    15    1
   15    14    16    1
   16    14    17    1
   17    17    18    1
   18    17    19    1
   19    17    20    1
@<TRIPOS>SUBSTRUCTURE
       1 MOL1            1 RESIDUE      1      MOL     
@<SCITEGIC>MOL_PROPERTY
VConf Rank
SciTegic.value.IntegerValue
556

@<SCITEGIC>MOL_PROPERTY
Conf_Id
SciTegic.value.IntegerValue
1

@<SCITEGIC>MOL_PROPERTY
Delta U+W
SciTegic.value.DoubleValue
1.032

@<SCITEGIC>MOL_PROPERTY
U+W
SciTegic.value.DoubleValue
-10.746

@<SCITEGIC>MOL_PROPERTY
Grad RMS
SciTegic.value.DoubleValue
0.000000

@<SCITEGIC>MOL_PROPERTY
U
SciTegic.value.DoubleValue
47.562

@<SCITEGIC>MOL_PROPERTY
W
SciTegic.value.DoubleValue
-58.308

@<SCITEGIC>MOL_PROPERTY
W(PB)
SciTegic.value.DoubleValue
-60.184

@<SCITEGIC>MOL_PROPERTY
W(SA)
SciTegic.value.DoubleValue
1.877

@<SCITEGIC>MOL_PROPERTY
Valence
SciTegic.value.DoubleValue
2.149

@<SCITEGIC>MOL_PROPERTY
Coulomb
SciTegic.value.DoubleValue
45.035

@<SCITEGIC>MOL_PROPERTY
VdW
SciTegic.value.DoubleValue
0.378

@<SCITEGIC>MOL_PROPERTY
VdW6
SciTegic.value.DoubleValue
-5.599

@<SCITEGIC>MOL_PROPERTY
VdW12
SciTegic.value.DoubleValue
5.978

@<SCITEGIC>MOL_PROPERTY
Bond
SciTegic.value.DoubleValue
0.185

@<SCITEGIC>MOL_PROPERTY
Angle
SciTegic.value.DoubleValue
0.935

@<SCITEGIC>MOL_PROPERTY
Pdih
SciTegic.value.DoubleValue
1.028

@<SCITEGIC>MOL_PROPERTY
Idih
SciTegic.value.DoubleValue
0.000

@<SCITEGIC>MOL_PROPERTY
Tether
SciTegic.value.DoubleValue
0.000

@<TRIPOS>MOLECULE
guest-s11_confgen4.mol2 : confsearch ligand conformer 557
          20          19           1
SMALL
USER_CHARGES
 
@<TRIPOS>ATOM
       1    N1      21.710243   17.327934   22.767916 N.4        1 MOL1        -0.5919
       2    H1      21.678347   16.795055   23.642623 H          1 MOL1         0.3682
       3    H2      20.927890   17.008055   22.189742 H          1 MOL1         0.3682
       4    H3      22.571694   17.054549   22.283655 H          1 MOL1         0.3682
       5    C1      21.653744   18.823029   23.015416 C.3        1 MOL1         0.0252
       6    H4      21.722908   19.326456   22.049861 H          1 MOL1         0.0971
       7    H5      22.538033   19.092844   23.599160 H          1 MOL1         0.0971
       8    C2      20.388975   19.282552   23.771667 C.3        1 MOL1        -0.1369
       9    H6      20.351878   18.747206   24.729710 H          1 MOL1         0.0997
      10    H7      20.483732   20.346539   24.025778 H          1 MOL1         0.0997
      11    C3      19.055780   19.045474   23.012255 C.3        1 MOL1        -0.1329
      12    H8      18.248066   19.002460   23.756011 H          1 MOL1         0.0997
      13    H9      19.056906   18.061769   22.525380 H          1 MOL1         0.0997
      14    C4      18.680852   20.144523   21.984853 C.3        1 MOL1        -0.1305
      15    H10     17.683152   19.915729   21.584610 H          1 MOL1         0.0997
      16    H11     18.586863   21.112996   22.495742 H          1 MOL1         0.0997
      17    C5      19.664217   20.281336   20.801550 C.3        1 MOL1        -0.2320
      18    H12     19.869644   19.307519   20.338689 H          1 MOL1         0.1008
      19    H13     19.242793   20.937267   20.028837 H          1 MOL1         0.1008
      20    H14     20.613570   20.727468   21.120534 H          1 MOL1         0.1008
@<TRIPOS>BOND
    1     1     2    1
    2     1     3    1
    3     1     4    1
    4     1     5    1
    5     5     6    1
    6     5     7    1
    7     5     8    1
    8     8     9    1
    9     8    10    1
   10     8    11    1
   11    11    12    1
   12    11    13    1
   13    11    14    1
   14    14    15    1
   15    14    16    1
   16    14    17    1
   17    17    18    1
   18    17    19    1
   19    17    20    1
@<TRIPOS>SUBSTRUCTURE
       1 MOL1            1 RESIDUE      1      MOL     
@<SCITEGIC>MOL_PROPERTY
VConf Rank
SciTegic.value.IntegerValue
557

@<SCITEGIC>MOL_PROPERTY
Conf_Id
SciTegic.value.IntegerValue
80

@<SCITEGIC>MOL_PROPERTY
Delta U+W
SciTegic.value.DoubleValue
2.920

@<SCITEGIC>MOL_PROPERTY
U+W
SciTegic.value.DoubleValue
-8.857

@<SCITEGIC>MOL_PROPERTY
Grad RMS
SciTegic.value.DoubleValue
0.000000

@<SCITEGIC>MOL_PROPERTY
U
SciTegic.value.DoubleValue
49.434

@<SCITEGIC>MOL_PROPERTY
W
SciTegic.value.DoubleValue
-58.292

@<SCITEGIC>MOL_PROPERTY
W(PB)
SciTegic.value.DoubleValue
-60.170

@<SCITEGIC>MOL_PROPERTY
W(SA)
SciTegic.value.DoubleValue
1.879

@<SCITEGIC>MOL_PROPERTY
Valence
SciTegic.value.DoubleValue
3.798

@<SCITEGIC>MOL_PROPERTY
Coulomb
SciTegic.value.DoubleValue
45.253

@<SCITEGIC>MOL_PROPERTY
VdW
SciTegic.value.DoubleValue
0.384

@<SCITEGIC>MOL_PROPERTY
VdW6
SciTegic.value.DoubleValue
-5.595

@<SCITEGIC>MOL_PROPERTY
VdW12
SciTegic.value.DoubleValue
5.979

@<SCITEGIC>MOL_PROPERTY
Bond
SciTegic.value.DoubleValue
0.198

@<SCITEGIC>MOL_PROPERTY
Angle
SciTegic.value.DoubleValue
1.368

@<SCITEGIC>MOL_PROPERTY
Pdih
SciTegic.value.DoubleValue
2.231

@<SCITEGIC>MOL_PROPERTY
Idih
SciTegic.value.DoubleValue
0.000

@<SCITEGIC>MOL_PROPERTY
Tether
SciTegic.value.DoubleValue
0.000

@<TRIPOS>MOLECULE
guest-s11_confgen4.mol2 : confsearch ligand conformer 558
          20          19           1
SMALL
USER_CHARGES
 
@<TRIPOS>ATOM
       1    N1      20.955084   19.509168   24.672957 N.4        1 MOL1        -0.5919
       2    H1      20.468235   19.029253   25.436337 H          1 MOL1         0.3682
       3    H2      21.833881   19.869084   25.059640 H          1 MOL1         0.3682
       4    H3      20.387225   20.321334   24.414869 H          1 MOL1         0.3682
       5    C1      21.194793   18.590391   23.490525 C.3        1 MOL1         0.0252
       6    H4      21.839028   17.775966   23.832863 H          1 MOL1         0.0971
       7    H5      21.740861   19.153807   22.732311 H          1 MOL1         0.0971
       8    C2      19.902734   17.995359   22.891152 C.3        1 MOL1        -0.1369
       9    H6      20.165258   17.246655   22.132111 H          1 MOL1         0.0997
      10    H7      19.380084   17.446693   23.685898 H          1 MOL1         0.0997
      11    C3      18.930112   19.038872   22.278443 C.3        1 MOL1        -0.1329
      12    H8      18.859302   19.926240   22.920536 H          1 MOL1         0.0997
      13    H9      17.923126   18.599105   22.275681 H          1 MOL1         0.0997
      14    C4      19.253925   19.462969   20.822651 C.3        1 MOL1        -0.1305
      15    H10     19.228999   18.582277   20.165733 H          1 MOL1         0.0997
      16    H11     18.451003   20.125705   20.470449 H          1 MOL1         0.0997
      17    C5      20.603744   20.193959   20.650697 C.3        1 MOL1        -0.2320
      18    H12     21.448857   19.505925   20.770891 H          1 MOL1         0.1008
      19    H13     20.678979   20.624894   19.643938 H          1 MOL1         0.1008
      20    H14     20.709300   21.012595   21.374198 H          1 MOL1         0.1008
@<TRIPOS>BOND
    1     1     2    1
    2     1     3    1
    3     1     4    1
    4     1     5    1
    5     5     6    1
    6     5     7    1
    7     5     8    1
    8     8     9    1
    9     8    10    1
   10     8    11    1
   11    11    12    1
   12    11    13    1
   13    11    14    1
   14    14    15    1
   15    14    16    1
   16    14    17    1
   17    17    18    1
   18    17    19    1
   19    17    20    1
@<TRIPOS>SUBSTRUCTURE
       1 MOL1            1 RESIDUE      1      MOL     
@<SCITEGIC>MOL_PROPERTY
VConf Rank
SciTegic.value.IntegerValue
558

@<SCITEGIC>MOL_PROPERTY
Conf_Id
SciTegic.value.IntegerValue
65

@<SCITEGIC>MOL_PROPERTY
Delta U+W
SciTegic.value.DoubleValue
2.949

@<SCITEGIC>MOL_PROPERTY
U+W
SciTegic.value.DoubleValue
-8.829

@<SCITEGIC>MOL_PROPERTY
Grad RMS
SciTegic.value.DoubleValue
0.000000

@<SCITEGIC>MOL_PROPERTY
U
SciTegic.value.DoubleValue
49.435

@<SCITEGIC>MOL_PROPERTY
W
SciTegic.value.DoubleValue
-58.263

@<SCITEGIC>MOL_PROPERTY
W(PB)
SciTegic.value.DoubleValue
-60.125

@<SCITEGIC>MOL_PROPERTY
W(SA)
SciTegic.value.DoubleValue
1.862

@<SCITEGIC>MOL_PROPERTY
Valence
SciTegic.value.DoubleValue
3.797

@<SCITEGIC>MOL_PROPERTY
Coulomb
SciTegic.value.DoubleValue
45.253

@<SCITEGIC>MOL_PROPERTY
VdW
SciTegic.value.DoubleValue
0.384

@<SCITEGIC>MOL_PROPERTY
VdW6
SciTegic.value.DoubleValue
-5.596

@<SCITEGIC>MOL_PROPERTY
VdW12
SciTegic.value.DoubleValue
5.980

@<SCITEGIC>MOL_PROPERTY
Bond
SciTegic.value.DoubleValue
0.198

@<SCITEGIC>MOL_PROPERTY
Angle
SciTegic.value.DoubleValue
1.369

@<SCITEGIC>MOL_PROPERTY
Pdih
SciTegic.value.DoubleValue
2.230

@<SCITEGIC>MOL_PROPERTY
Idih
SciTegic.value.DoubleValue
0.000

@<SCITEGIC>MOL_PROPERTY
Tether
SciTegic.value.DoubleValue
0.000

@<TRIPOS>MOLECULE
guest-s11_confgen4.mol2 : confsearch ligand conformer 559
          20          19           1
SMALL
USER_CHARGES
 
@<TRIPOS>ATOM
       1    N1      20.443489   19.719360   24.337798 N.4        1 MOL1        -0.5919
       2    H1      21.242284   19.978694   24.926317 H          1 MOL1         0.3682
       3    H2      20.365083   20.425805   23.599887 H          1 MOL1         0.3682
       4    H3      19.605358   19.795010   24.922794 H          1 MOL1         0.3682
       5    C1      20.599972   18.327529   23.756527 C.3        1 MOL1         0.0252
       6    H4      20.674506   17.635676   24.599915 H          1 MOL1         0.0971
       7    H5      21.538951   18.284086   23.198287 H          1 MOL1         0.0971
       8    C2      19.430845   17.891977   22.849970 C.3        1 MOL1        -0.1369
       9    H6      19.416811   16.794190   22.828104 H          1 MOL1         0.0997
      10    H7      18.476972   18.193415   23.302816 H          1 MOL1         0.0997
      11    C3      19.509207   18.393532   21.382945 C.3        1 MOL1        -0.1329
      12    H8      18.651632   17.967174   20.844142 H          1 MOL1         0.0997
      13    H9      20.399905   17.977456   20.892022 H          1 MOL1         0.0997
      14    C4      19.472220   19.932495   21.201991 C.3        1 MOL1        -0.1305
      15    H10     18.914246   20.163506   20.283538 H          1 MOL1         0.0997
      16    H11     18.905424   20.401890   22.017267 H          1 MOL1         0.0997
      17    C5      20.879069   20.562969   21.071231 C.3        1 MOL1        -0.2320
      18    H12     21.528364   20.319442   21.918996 H          1 MOL1         0.1008
      19    H13     21.378945   20.205770   20.161366 H          1 MOL1         0.1008
      20    H14     20.808144   21.656241   21.001195 H          1 MOL1         0.1008
@<TRIPOS>BOND
    1     1     2    1
    2     1     3    1
    3     1     4    1
    4     1     5    1
    5     5     6    1
    6     5     7    1
    7     5     8    1
    8     8     9    1
    9     8    10    1
   10     8    11    1
   11    11    12    1
   12    11    13    1
   13    11    14    1
   14    14    15    1
   15    14    16    1
   16    14    17    1
   17    17    18    1
   18    17    19    1
   19    17    20    1
@<TRIPOS>SUBSTRUCTURE
       1 MOL1            1 RESIDUE      1      MOL     
@<SCITEGIC>MOL_PROPERTY
VConf Rank
SciTegic.value.IntegerValue
559

@<SCITEGIC>MOL_PROPERTY
Conf_Id
SciTegic.value.IntegerValue
77

@<SCITEGIC>MOL_PROPERTY
Delta U+W
SciTegic.value.DoubleValue
5.366

@<SCITEGIC>MOL_PROPERTY
U+W
SciTegic.value.DoubleValue
-6.412

@<SCITEGIC>MOL_PROPERTY
Grad RMS
SciTegic.value.DoubleValue
0.000000

@<SCITEGIC>MOL_PROPERTY
U
SciTegic.value.DoubleValue
51.542

@<SCITEGIC>MOL_PROPERTY
W
SciTegic.value.DoubleValue
-57.954

@<SCITEGIC>MOL_PROPERTY
W(PB)
SciTegic.value.DoubleValue
-59.811

@<SCITEGIC>MOL_PROPERTY
W(SA)
SciTegic.value.DoubleValue
1.857

@<SCITEGIC>MOL_PROPERTY
Valence
SciTegic.value.DoubleValue
5.347

@<SCITEGIC>MOL_PROPERTY
Coulomb
SciTegic.value.DoubleValue
45.870

@<SCITEGIC>MOL_PROPERTY
VdW
SciTegic.value.DoubleValue
0.325

@<SCITEGIC>MOL_PROPERTY
VdW6
SciTegic.value.DoubleValue
-6.161

@<SCITEGIC>MOL_PROPERTY
VdW12
SciTegic.value.DoubleValue
6.486

@<SCITEGIC>MOL_PROPERTY
Bond
SciTegic.value.DoubleValue
0.201

@<SCITEGIC>MOL_PROPERTY
Angle
SciTegic.value.DoubleValue
1.484

@<SCITEGIC>MOL_PROPERTY
Pdih
SciTegic.value.DoubleValue
3.662

@<SCITEGIC>MOL_PROPERTY
Idih
SciTegic.value.DoubleValue
0.000

@<SCITEGIC>MOL_PROPERTY
Tether
SciTegic.value.DoubleValue
0.000

@<TRIPOS>MOLECULE
guest-s11_confgen4.mol2 : confsearch ligand conformer 560
          20          19           1
SMALL
USER_CHARGES
 
@<TRIPOS>ATOM
       1    N1      21.517481   18.667888   21.027500 N.4        1 MOL1        -0.5919
       2    H1      21.133756   18.232755   20.182620 H          1 MOL1         0.3682
       3    H2      21.067558   19.582577   21.130649 H          1 MOL1         0.3682
       4    H3      22.513739   18.834910   20.850704 H          1 MOL1         0.3682
       5    C1      21.299905   17.803104   22.254028 C.3        1 MOL1         0.0252
       6    H4      21.783575   18.280740   23.110257 H          1 MOL1         0.0971
       7    H5      21.804209   16.851114   22.067180 H          1 MOL1         0.0971
       8    C2      19.815880   17.532199   22.574483 C.3        1 MOL1        -0.1369
       9    H6      19.268593   17.316854   21.647169 H          1 MOL1         0.0997
      10    H7      19.766112   16.611453   23.170772 H          1 MOL1         0.0997
      11    C3      19.096529   18.652463   23.372861 C.3        1 MOL1        -0.1329
      12    H8      19.567326   18.771154   24.358623 H          1 MOL1         0.0997
      13    H9      18.073951   18.305455   23.576442 H          1 MOL1         0.0997
      14    C4      19.003873   20.025158   22.658967 C.3        1 MOL1        -0.1305
      15    H10     18.982293   19.890954   21.569111 H          1 MOL1         0.0997
      16    H11     18.042155   20.490120   22.918135 H          1 MOL1         0.0997
      17    C5      20.128524   21.003198   23.074200 C.3        1 MOL1        -0.2320
      18    H12     20.056952   21.939225   22.505065 H          1 MOL1         0.1008
      19    H13     20.045279   21.257276   24.139017 H          1 MOL1         0.1008
      20    H14     21.128186   20.585274   22.914176 H          1 MOL1         0.1008
@<TRIPOS>BOND
    1     1     2    1
    2     1     3    1
    3     1     4    1
    4     1     5    1
    5     5     6    1
    6     5     7    1
    7     5     8    1
    8     8     9    1
    9     8    10    1
   10     8    11    1
   11    11    12    1
   12    11    13    1
   13    11    14    1
   14    14    15    1
   15    14    16    1
   16    14    17    1
   17    17    18    1
   18    17    19    1
   19    17    20    1
@<TRIPOS>SUBSTRUCTURE
       1 MOL1            1 RESIDUE      1      MOL     
@<SCITEGIC>MOL_PROPERTY
VConf Rank
SciTegic.value.IntegerValue
560

@<SCITEGIC>MOL_PROPERTY
Conf_Id
SciTegic.value.IntegerValue
67

@<SCITEGIC>MOL_PROPERTY
Delta U+W
SciTegic.value.DoubleValue
5.353

@<SCITEGIC>MOL_PROPERTY
U+W
SciTegic.value.DoubleValue
-6.425

@<SCITEGIC>MOL_PROPERTY
Grad RMS
SciTegic.value.DoubleValue
0.000000

@<SCITEGIC>MOL_PROPERTY
U
SciTegic.value.DoubleValue
51.541

@<SCITEGIC>MOL_PROPERTY
W
SciTegic.value.DoubleValue
-57.966

@<SCITEGIC>MOL_PROPERTY
W(PB)
SciTegic.value.DoubleValue
-59.821

@<SCITEGIC>MOL_PROPERTY
W(SA)
SciTegic.value.DoubleValue
1.855

@<SCITEGIC>MOL_PROPERTY
Valence
SciTegic.value.DoubleValue
5.347

@<SCITEGIC>MOL_PROPERTY
Coulomb
SciTegic.value.DoubleValue
45.870

@<SCITEGIC>MOL_PROPERTY
VdW
SciTegic.value.DoubleValue
0.325

@<SCITEGIC>MOL_PROPERTY
VdW6
SciTegic.value.DoubleValue
-6.161

@<SCITEGIC>MOL_PROPERTY
VdW12
SciTegic.value.DoubleValue
6.486

@<SCITEGIC>MOL_PROPERTY
Bond
SciTegic.value.DoubleValue
0.201

@<SCITEGIC>MOL_PROPERTY
Angle
SciTegic.value.DoubleValue
1.485

@<SCITEGIC>MOL_PROPERTY
Pdih
SciTegic.value.DoubleValue
3.662

@<SCITEGIC>MOL_PROPERTY
Idih
SciTegic.value.DoubleValue
0.000

@<SCITEGIC>MOL_PROPERTY
Tether
SciTegic.value.DoubleValue
0.000

@<TRIPOS>MOLECULE
guest-s11_confgen4.mol2 : confsearch ligand conformer 561
          20          19           1
SMALL
USER_CHARGES
 
@<TRIPOS>ATOM
       1    N1      19.211272   22.121324   23.168888 N.4        1 MOL1        -0.5919
       2    H1      18.504805   22.225533   22.433746 H          1 MOL1         0.3682
       3    H2      18.863215   22.628345   23.989489 H          1 MOL1         0.3682
       4    H3      20.052123   22.613239   22.850489 H          1 MOL1         0.3682
       5    C1      19.491311   20.665602   23.483431 C.3        1 MOL1         0.0252
       6    H4      18.563264   20.213602   23.843907 H          1 MOL1         0.0971
       7    H5      20.226760   20.630376   24.291756 H          1 MOL1         0.0971
       8    C2      20.015717   19.874862   22.271410 C.3        1 MOL1        -0.1369
       9    H6      19.281199   19.926290   21.456605 H          1 MOL1         0.0997
      10    H7      20.938973   20.341620   21.902896 H          1 MOL1         0.0997
      11    C3      20.288101   18.398018   22.633996 C.3        1 MOL1        -0.1329
      12    H8      19.363608   17.935632   23.007226 H          1 MOL1         0.0997
      13    H9      21.019459   18.350451   23.452925 H          1 MOL1         0.0997
      14    C4      20.815118   17.594055   21.424271 C.3        1 MOL1        -0.1305
      15    H10     20.085515   17.637285   20.603382 H          1 MOL1         0.0997
      16    H11     21.741177   18.051974   21.049073 H          1 MOL1         0.0997
      17    C5      21.085737   16.119228   21.791187 C.3        1 MOL1        -0.2320
      18    H12     20.169416   15.623843   22.137834 H          1 MOL1         0.1008
      19    H13     21.458921   15.565154   20.920107 H          1 MOL1         0.1008
      20    H14     21.838101   16.041753   22.586901 H          1 MOL1         0.1008
@<TRIPOS>BOND
    1     1     2    1
    2     1     3    1
    3     1     4    1
    4     1     5    1
    5     5     6    1
    6     5     7    1
    7     5     8    1
    8     8     9    1
    9     8    10    1
   10     8    11    1
   11    11    12    1
   12    11    13    1
   13    11    14    1
   14    14    15    1
   15    14    16    1
   16    14    17    1
   17    17    18    1
   18    17    19    1
   19    17    20    1
@<TRIPOS>SUBSTRUCTURE
       1 MOL1            1 RESIDUE      1      MOL     
@<SCITEGIC>MOL_PROPERTY
VConf Rank
SciTegic.value.IntegerValue
561

@<SCITEGIC>MOL_PROPERTY
Conf_Id
SciTegic.value.IntegerValue
72

@<SCITEGIC>MOL_PROPERTY
Delta U+W
SciTegic.value.DoubleValue
0.000

@<SCITEGIC>MOL_PROPERTY
U+W
SciTegic.value.DoubleValue
-11.778

@<SCITEGIC>MOL_PROPERTY
Grad RMS
SciTegic.value.DoubleValue
0.000000

@<SCITEGIC>MOL_PROPERTY
U
SciTegic.value.DoubleValue
45.772

@<SCITEGIC>MOL_PROPERTY
W
SciTegic.value.DoubleValue
-57.550

@<SCITEGIC>MOL_PROPERTY
W(PB)
SciTegic.value.DoubleValue
-59.511

@<SCITEGIC>MOL_PROPERTY
W(SA)
SciTegic.value.DoubleValue
1.961

@<SCITEGIC>MOL_PROPERTY
Valence
SciTegic.value.DoubleValue
1.299

@<SCITEGIC>MOL_PROPERTY
Coulomb
SciTegic.value.DoubleValue
44.177

@<SCITEGIC>MOL_PROPERTY
VdW
SciTegic.value.DoubleValue
0.297

@<SCITEGIC>MOL_PROPERTY
VdW6
SciTegic.value.DoubleValue
-3.490

@<SCITEGIC>MOL_PROPERTY
VdW12
SciTegic.value.DoubleValue
3.786

@<SCITEGIC>MOL_PROPERTY
Bond
SciTegic.value.DoubleValue
0.096

@<SCITEGIC>MOL_PROPERTY
Angle
SciTegic.value.DoubleValue
0.381

@<SCITEGIC>MOL_PROPERTY
Pdih
SciTegic.value.DoubleValue
0.822

@<SCITEGIC>MOL_PROPERTY
Idih
SciTegic.value.DoubleValue
0.000

@<SCITEGIC>MOL_PROPERTY
Tether
SciTegic.value.DoubleValue
0.000

@<TRIPOS>MOLECULE
guest-s11_confgen4.mol2 : confsearch ligand conformer 562
          20          19           1
SMALL
USER_CHARGES
 
@<TRIPOS>ATOM
       1    N1      20.413666   19.642199   19.530276 N.4        1 MOL1        -0.5919
       2    H1      19.860570   18.806405   19.316104 H          1 MOL1         0.3682
       3    H2      19.785031   20.447819   19.451805 H          1 MOL1         0.3682
       4    H3      21.111362   19.735977   18.784616 H          1 MOL1         0.3682
       5    C1      21.059768   19.558936   20.898557 C.3        1 MOL1         0.0252
       6    H4      21.654974   20.464156   21.046209 H          1 MOL1         0.0971
       7    H5      21.735753   18.699550   20.900978 H          1 MOL1         0.0971
       8    C2      20.039258   19.417968   22.042216 C.3        1 MOL1        -0.1369
       9    H6      19.352720   20.274834   22.026200 H          1 MOL1         0.0997
      10    H7      19.436233   18.516709   21.874405 H          1 MOL1         0.0997
      11    C3      20.741697   19.339067   23.418255 C.3        1 MOL1        -0.1329
      12    H8      21.399194   20.211908   23.534824 H          1 MOL1         0.0997
      13    H9      21.393856   18.455203   23.450801 H          1 MOL1         0.0997
      14    C4      19.757880   19.300659   24.612951 C.3        1 MOL1        -0.1305
      15    H10     20.335094   19.351461   25.546858 H          1 MOL1         0.0997
      16    H11     19.119464   20.195128   24.597910 H          1 MOL1         0.0997
      17    C5      18.874822   18.032231   24.641760 C.3        1 MOL1        -0.2320
      18    H12     19.489174   17.122605   24.628846 H          1 MOL1         0.1008
      19    H13     18.263280   18.010642   25.553079 H          1 MOL1         0.1008
      20    H14     18.190231   17.997440   23.785287 H          1 MOL1         0.1008
@<TRIPOS>BOND
    1     1     2    1
    2     1     3    1
    3     1     4    1
    4     1     5    1
    5     5     6    1
    6     5     7    1
    7     5     8    1
    8     8     9    1
    9     8    10    1
   10     8    11    1
   11    11    12    1
   12    11    13    1
   13    11    14    1
   14    14    15    1
   15    14    16    1
   16    14    17    1
   17    17    18    1
   18    17    19    1
   19    17    20    1
@<TRIPOS>SUBSTRUCTURE
       1 MOL1            1 RESIDUE      1      MOL     
@<SCITEGIC>MOL_PROPERTY
VConf Rank
SciTegic.value.IntegerValue
562

@<SCITEGIC>MOL_PROPERTY
Conf_Id
SciTegic.value.IntegerValue
42

@<SCITEGIC>MOL_PROPERTY
Delta U+W
SciTegic.value.DoubleValue
0.508

@<SCITEGIC>MOL_PROPERTY
U+W
SciTegic.value.DoubleValue
-11.270

@<SCITEGIC>MOL_PROPERTY
Grad RMS
SciTegic.value.DoubleValue
0.000000

@<SCITEGIC>MOL_PROPERTY
U
SciTegic.value.DoubleValue
46.486

@<SCITEGIC>MOL_PROPERTY
W
SciTegic.value.DoubleValue
-57.756

@<SCITEGIC>MOL_PROPERTY
W(PB)
SciTegic.value.DoubleValue
-59.705

@<SCITEGIC>MOL_PROPERTY
W(SA)
SciTegic.value.DoubleValue
1.949

@<SCITEGIC>MOL_PROPERTY
Valence
SciTegic.value.DoubleValue
1.806

@<SCITEGIC>MOL_PROPERTY
Coulomb
SciTegic.value.DoubleValue
44.248

@<SCITEGIC>MOL_PROPERTY
VdW
SciTegic.value.DoubleValue
0.433

@<SCITEGIC>MOL_PROPERTY
VdW6
SciTegic.value.DoubleValue
-4.089

@<SCITEGIC>MOL_PROPERTY
VdW12
SciTegic.value.DoubleValue
4.522

@<SCITEGIC>MOL_PROPERTY
Bond
SciTegic.value.DoubleValue
0.131

@<SCITEGIC>MOL_PROPERTY
Angle
SciTegic.value.DoubleValue
0.628

@<SCITEGIC>MOL_PROPERTY
Pdih
SciTegic.value.DoubleValue
1.047

@<SCITEGIC>MOL_PROPERTY
Idih
SciTegic.value.DoubleValue
0.000

@<SCITEGIC>MOL_PROPERTY
Tether
SciTegic.value.DoubleValue
0.000

@<TRIPOS>MOLECULE
guest-s11_confgen4.mol2 : confsearch ligand conformer 563
          20          19           1
SMALL
USER_CHARGES
 
@<TRIPOS>ATOM
       1    N1      17.214315   19.599571   22.220328 N.4        1 MOL1        -0.5919
       2    H1      17.217512   20.551737   22.599450 H          1 MOL1         0.3682
       3    H2      17.295440   19.680466   21.201893 H          1 MOL1         0.3682
       4    H3      16.287615   19.205628   22.414278 H          1 MOL1         0.3682
       5    C1      18.321846   18.750712   22.811425 C.3        1 MOL1         0.0252
       6    H4      18.240125   17.746171   22.387481 H          1 MOL1         0.0971
       7    H5      18.155610   18.682599   23.889952 H          1 MOL1         0.0971
       8    C2      19.727833   19.314760   22.538809 C.3        1 MOL1        -0.1369
       9    H6      19.876826   19.395395   21.454666 H          1 MOL1         0.0997
      10    H7      19.800282   20.329482   22.952211 H          1 MOL1         0.0997
      11    C3      20.825111   18.419297   23.161113 C.3        1 MOL1        -0.1329
      12    H8      20.782325   17.416491   22.713747 H          1 MOL1         0.0997
      13    H9      20.615389   18.288474   24.231928 H          1 MOL1         0.0997
      14    C4      22.253899   18.994750   23.005909 C.3        1 MOL1        -0.1305
      15    H10     22.307577   19.988046   23.473197 H          1 MOL1         0.0997
      16    H11     22.953801   18.355728   23.562440 H          1 MOL1         0.0997
      17    C5      22.723826   19.085727   21.536071 C.3        1 MOL1        -0.2320
      18    H12     22.127150   19.808109   20.965487 H          1 MOL1         0.1008
      19    H13     23.770796   19.411928   21.487089 H          1 MOL1         0.1008
      20    H14     22.653066   18.110341   21.037444 H          1 MOL1         0.1008
@<TRIPOS>BOND
    1     1     2    1
    2     1     3    1
    3     1     4    1
    4     1     5    1
    5     5     6    1
    6     5     7    1
    7     5     8    1
    8     8     9    1
    9     8    10    1
   10     8    11    1
   11    11    12    1
   12    11    13    1
   13    11    14    1
   14    14    15    1
   15    14    16    1
   16    14    17    1
   17    17    18    1
   18    17    19    1
   19    17    20    1
@<TRIPOS>SUBSTRUCTURE
       1 MOL1            1 RESIDUE      1      MOL     
@<SCITEGIC>MOL_PROPERTY
VConf Rank
SciTegic.value.IntegerValue
563

@<SCITEGIC>MOL_PROPERTY
Conf_Id
SciTegic.value.IntegerValue
41

@<SCITEGIC>MOL_PROPERTY
Delta U+W
SciTegic.value.DoubleValue
0.515

@<SCITEGIC>MOL_PROPERTY
U+W
SciTegic.value.DoubleValue
-11.263

@<SCITEGIC>MOL_PROPERTY
Grad RMS
SciTegic.value.DoubleValue
0.000000

@<SCITEGIC>MOL_PROPERTY
U
SciTegic.value.DoubleValue
46.486

@<SCITEGIC>MOL_PROPERTY
W
SciTegic.value.DoubleValue
-57.749

@<SCITEGIC>MOL_PROPERTY
W(PB)
SciTegic.value.DoubleValue
-59.685

@<SCITEGIC>MOL_PROPERTY
W(SA)
SciTegic.value.DoubleValue
1.936

@<SCITEGIC>MOL_PROPERTY
Valence
SciTegic.value.DoubleValue
1.806

@<SCITEGIC>MOL_PROPERTY
Coulomb
SciTegic.value.DoubleValue
44.248

@<SCITEGIC>MOL_PROPERTY
VdW
SciTegic.value.DoubleValue
0.433

@<SCITEGIC>MOL_PROPERTY
VdW6
SciTegic.value.DoubleValue
-4.089

@<SCITEGIC>MOL_PROPERTY
VdW12
SciTegic.value.DoubleValue
4.522

@<SCITEGIC>MOL_PROPERTY
Bond
SciTegic.value.DoubleValue
0.131

@<SCITEGIC>MOL_PROPERTY
Angle
SciTegic.value.DoubleValue
0.628

@<SCITEGIC>MOL_PROPERTY
Pdih
SciTegic.value.DoubleValue
1.047

@<SCITEGIC>MOL_PROPERTY
Idih
SciTegic.value.DoubleValue
0.000

@<SCITEGIC>MOL_PROPERTY
Tether
SciTegic.value.DoubleValue
0.000

@<TRIPOS>MOLECULE
guest-s11_confgen4.mol2 : confsearch ligand conformer 564
          20          19           1
SMALL
USER_CHARGES
 
@<TRIPOS>ATOM
       1    N1      19.395826   16.466186   22.547894 N.4        1 MOL1        -0.5919
       2    H1      19.107375   15.625785   23.059777 H          1 MOL1         0.3682
       3    H2      18.539835   16.929741   22.229560 H          1 MOL1         0.3682
       4    H3      19.896939   16.148477   21.712347 H          1 MOL1         0.3682
       5    C1      20.249306   17.381534   23.404559 C.3        1 MOL1         0.0252
       6    H4      21.116408   16.806208   23.740317 H          1 MOL1         0.0971
       7    H5      19.666761   17.663372   24.285836 H          1 MOL1         0.0971
       8    C2      20.731826   18.650282   22.674269 C.3        1 MOL1        -0.1369
       9    H6      21.430166   19.176932   23.336514 H          1 MOL1         0.0997
      10    H7      21.301609   18.364165   21.780304 H          1 MOL1         0.0997
      11    C3      19.567567   19.595051   22.283079 C.3        1 MOL1        -0.1329
      12    H8      19.016062   19.895239   23.184854 H          1 MOL1         0.0997
      13    H9      18.853038   19.052072   21.650442 H          1 MOL1         0.0997
      14    C4      20.029613   20.857815   21.515668 C.3        1 MOL1        -0.1305
      15    H10     20.570139   20.562817   20.605352 H          1 MOL1         0.0997
      16    H11     19.140939   21.410036   21.179141 H          1 MOL1         0.0997
      17    C5      20.912032   21.804816   22.360824 C.3        1 MOL1        -0.2320
      18    H12     21.872012   21.340576   22.618096 H          1 MOL1         0.1008
      19    H13     21.130727   22.724904   21.803546 H          1 MOL1         0.1008
      20    H14     20.406351   22.089740   23.292548 H          1 MOL1         0.1008
@<TRIPOS>BOND
    1     1     2    1
    2     1     3    1
    3     1     4    1
    4     1     5    1
    5     5     6    1
    6     5     7    1
    7     5     8    1
    8     8     9    1
    9     8    10    1
   10     8    11    1
   11    11    12    1
   12    11    13    1
   13    11    14    1
   14    14    15    1
   15    14    16    1
   16    14    17    1
   17    17    18    1
   18    17    19    1
   19    17    20    1
@<TRIPOS>SUBSTRUCTURE
       1 MOL1            1 RESIDUE      1      MOL     
@<SCITEGIC>MOL_PROPERTY
VConf Rank
SciTegic.value.IntegerValue
564

@<SCITEGIC>MOL_PROPERTY
Conf_Id
SciTegic.value.IntegerValue
33

@<SCITEGIC>MOL_PROPERTY
Delta U+W
SciTegic.value.DoubleValue
0.703

@<SCITEGIC>MOL_PROPERTY
U+W
SciTegic.value.DoubleValue
-11.075

@<SCITEGIC>MOL_PROPERTY
Grad RMS
SciTegic.value.DoubleValue
0.000000

@<SCITEGIC>MOL_PROPERTY
U
SciTegic.value.DoubleValue
47.080

@<SCITEGIC>MOL_PROPERTY
W
SciTegic.value.DoubleValue
-58.154

@<SCITEGIC>MOL_PROPERTY
W(PB)
SciTegic.value.DoubleValue
-60.053

@<SCITEGIC>MOL_PROPERTY
W(SA)
SciTegic.value.DoubleValue
1.899

@<SCITEGIC>MOL_PROPERTY
Valence
SciTegic.value.DoubleValue
1.943

@<SCITEGIC>MOL_PROPERTY
Coulomb
SciTegic.value.DoubleValue
44.572

@<SCITEGIC>MOL_PROPERTY
VdW
SciTegic.value.DoubleValue
0.565

@<SCITEGIC>MOL_PROPERTY
VdW6
SciTegic.value.DoubleValue
-4.575

@<SCITEGIC>MOL_PROPERTY
VdW12
SciTegic.value.DoubleValue
5.139

@<SCITEGIC>MOL_PROPERTY
Bond
SciTegic.value.DoubleValue
0.158

@<SCITEGIC>MOL_PROPERTY
Angle
SciTegic.value.DoubleValue
0.700

@<SCITEGIC>MOL_PROPERTY
Pdih
SciTegic.value.DoubleValue
1.085

@<SCITEGIC>MOL_PROPERTY
Idih
SciTegic.value.DoubleValue
0.000

@<SCITEGIC>MOL_PROPERTY
Tether
SciTegic.value.DoubleValue
0.000

@<TRIPOS>MOLECULE
guest-s11_confgen4.mol2 : confsearch ligand conformer 565
          20          19           1
SMALL
USER_CHARGES
 
@<TRIPOS>ATOM
       1    N1      20.614570   19.251906   25.186940 N.4        1 MOL1        -0.5919
       2    H1      20.396305   18.986866   26.153177 H          1 MOL1         0.3682
       3    H2      21.619855   19.447770   25.151837 H          1 MOL1         0.3682
       4    H3      20.127683   20.133890   25.002596 H          1 MOL1         0.3682
       5    C1      20.215261   18.169326   24.202697 C.3        1 MOL1         0.0252
       6    H4      19.141188   17.993774   24.307545 H          1 MOL1         0.0971
       7    H5      20.738744   17.253046   24.489050 H          1 MOL1         0.0971
       8    C2      20.544852   18.506645   22.735235 C.3        1 MOL1        -0.1369
       9    H6      21.621306   18.699470   22.636455 H          1 MOL1         0.0997
      10    H7      20.327616   17.619688   22.127186 H          1 MOL1         0.0997
      11    C3      19.736720   19.717047   22.203287 C.3        1 MOL1        -0.1329
      12    H8      19.929764   20.592491   22.837276 H          1 MOL1         0.0997
      13    H9      18.661023   19.507824   22.284352 H          1 MOL1         0.0997
      14    C4      20.081106   20.093847   20.741646 C.3        1 MOL1        -0.1305
      15    H10     19.553399   21.022859   20.483958 H          1 MOL1         0.0997
      16    H11     21.153911   20.317393   20.658083 H          1 MOL1         0.0997
      17    C5      19.695564   19.003095   19.716276 C.3        1 MOL1        -0.2320
      18    H12     18.633502   18.738760   19.800869 H          1 MOL1         0.1008
      19    H13     19.871670   19.358936   18.692894 H          1 MOL1         0.1008
      20    H14     20.289415   18.091103   19.853693 H          1 MOL1         0.1008
@<TRIPOS>BOND
    1     1     2    1
    2     1     3    1
    3     1     4    1
    4     1     5    1
    5     5     6    1
    6     5     7    1
    7     5     8    1
    8     8     9    1
    9     8    10    1
   10     8    11    1
   11    11    12    1
   12    11    13    1
   13    11    14    1
   14    14    15    1
   15    14    16    1
   16    14    17    1
   17    17    18    1
   18    17    19    1
   19    17    20    1
@<TRIPOS>SUBSTRUCTURE
       1 MOL1            1 RESIDUE      1      MOL     
@<SCITEGIC>MOL_PROPERTY
VConf Rank
SciTegic.value.IntegerValue
565

@<SCITEGIC>MOL_PROPERTY
Conf_Id
SciTegic.value.IntegerValue
24

@<SCITEGIC>MOL_PROPERTY
Delta U+W
SciTegic.value.DoubleValue
0.847

@<SCITEGIC>MOL_PROPERTY
U+W
SciTegic.value.DoubleValue
-10.931

@<SCITEGIC>MOL_PROPERTY
Grad RMS
SciTegic.value.DoubleValue
0.000000

@<SCITEGIC>MOL_PROPERTY
U
SciTegic.value.DoubleValue
47.080

@<SCITEGIC>MOL_PROPERTY
W
SciTegic.value.DoubleValue
-58.011

@<SCITEGIC>MOL_PROPERTY
W(PB)
SciTegic.value.DoubleValue
-59.914

@<SCITEGIC>MOL_PROPERTY
W(SA)
SciTegic.value.DoubleValue
1.903

@<SCITEGIC>MOL_PROPERTY
Valence
SciTegic.value.DoubleValue
1.943

@<SCITEGIC>MOL_PROPERTY
Coulomb
SciTegic.value.DoubleValue
44.572

@<SCITEGIC>MOL_PROPERTY
VdW
SciTegic.value.DoubleValue
0.565

@<SCITEGIC>MOL_PROPERTY
VdW6
SciTegic.value.DoubleValue
-4.575

@<SCITEGIC>MOL_PROPERTY
VdW12
SciTegic.value.DoubleValue
5.140

@<SCITEGIC>MOL_PROPERTY
Bond
SciTegic.value.DoubleValue
0.158

@<SCITEGIC>MOL_PROPERTY
Angle
SciTegic.value.DoubleValue
0.700

@<SCITEGIC>MOL_PROPERTY
Pdih
SciTegic.value.DoubleValue
1.085

@<SCITEGIC>MOL_PROPERTY
Idih
SciTegic.value.DoubleValue
0.000

@<SCITEGIC>MOL_PROPERTY
Tether
SciTegic.value.DoubleValue
0.000

@<TRIPOS>MOLECULE
guest-s11_confgen4.mol2 : confsearch ligand conformer 566
          20          19           1
SMALL
USER_CHARGES
 
@<TRIPOS>ATOM
       1    N1      18.643363   21.132310   21.218974 N.4        1 MOL1        -0.5919
       2    H1      17.739724   21.513603   21.518210 H          1 MOL1         0.3682
       3    H2      19.348958   21.848193   21.418646 H          1 MOL1         0.3682
       4    H3      18.599233   21.028691   20.200335 H          1 MOL1         0.3682
       5    C1      18.956960   19.819835   21.908462 C.3        1 MOL1         0.0252
       6    H4      18.153042   19.115875   21.677087 H          1 MOL1         0.0971
       7    H5      18.957681   19.998835   22.986860 H          1 MOL1         0.0971
       8    C2      20.309702   19.219742   21.481141 C.3        1 MOL1        -0.1369
       9    H6      20.313556   19.082809   20.391648 H          1 MOL1         0.0997
      10    H7      21.116476   19.929410   21.704614 H          1 MOL1         0.0997
      11    C3      20.600940   17.856417   22.156806 C.3        1 MOL1        -0.1329
      12    H8      21.570309   17.481877   21.800005 H          1 MOL1         0.0997
      13    H9      19.852633   17.125075   21.821146 H          1 MOL1         0.0997
      14    C4      20.608553   17.886517   23.706728 C.3        1 MOL1        -0.1305
      15    H10     19.613785   18.157286   24.086068 H          1 MOL1         0.0997
      16    H11     20.804907   16.870080   24.075758 H          1 MOL1         0.0997
      17    C5      21.668443   18.843874   24.297584 C.3        1 MOL1        -0.2320
      18    H12     21.696194   18.758638   25.391599 H          1 MOL1         0.1008
      19    H13     22.670477   18.606913   23.917122 H          1 MOL1         0.1008
      20    H14     21.446343   19.890312   24.054119 H          1 MOL1         0.1008
@<TRIPOS>BOND
    1     1     2    1
    2     1     3    1
    3     1     4    1
    4     1     5    1
    5     5     6    1
    6     5     7    1
    7     5     8    1
    8     8     9    1
    9     8    10    1
   10     8    11    1
   11    11    12    1
   12    11    13    1
   13    11    14    1
   14    14    15    1
   15    14    16    1
   16    14    17    1
   17    17    18    1
   18    17    19    1
   19    17    20    1
@<TRIPOS>SUBSTRUCTURE
       1 MOL1            1 RESIDUE      1      MOL     
@<SCITEGIC>MOL_PROPERTY
VConf Rank
SciTegic.value.IntegerValue
566

@<SCITEGIC>MOL_PROPERTY
Conf_Id
SciTegic.value.IntegerValue
64

@<SCITEGIC>MOL_PROPERTY
Delta U+W
SciTegic.value.DoubleValue
0.707

@<SCITEGIC>MOL_PROPERTY
U+W
SciTegic.value.DoubleValue
-11.070

@<SCITEGIC>MOL_PROPERTY
Grad RMS
SciTegic.value.DoubleValue
0.000000

@<SCITEGIC>MOL_PROPERTY
U
SciTegic.value.DoubleValue
47.077

@<SCITEGIC>MOL_PROPERTY
W
SciTegic.value.DoubleValue
-58.148

@<SCITEGIC>MOL_PROPERTY
W(PB)
SciTegic.value.DoubleValue
-60.054

@<SCITEGIC>MOL_PROPERTY
W(SA)
SciTegic.value.DoubleValue
1.906

@<SCITEGIC>MOL_PROPERTY
Valence
SciTegic.value.DoubleValue
2.039

@<SCITEGIC>MOL_PROPERTY
Coulomb
SciTegic.value.DoubleValue
44.655

@<SCITEGIC>MOL_PROPERTY
VdW
SciTegic.value.DoubleValue
0.383

@<SCITEGIC>MOL_PROPERTY
VdW6
SciTegic.value.DoubleValue
-4.912

@<SCITEGIC>MOL_PROPERTY
VdW12
SciTegic.value.DoubleValue
5.295

@<SCITEGIC>MOL_PROPERTY
Bond
SciTegic.value.DoubleValue
0.159

@<SCITEGIC>MOL_PROPERTY
Angle
SciTegic.value.DoubleValue
0.856

@<SCITEGIC>MOL_PROPERTY
Pdih
SciTegic.value.DoubleValue
1.024

@<SCITEGIC>MOL_PROPERTY
Idih
SciTegic.value.DoubleValue
0.000

@<SCITEGIC>MOL_PROPERTY
Tether
SciTegic.value.DoubleValue
0.000

@<TRIPOS>MOLECULE
guest-s11_confgen4.mol2 : confsearch ligand conformer 567
          20          19           1
SMALL
USER_CHARGES
 
@<TRIPOS>ATOM
       1    N1      18.297143   18.416509   24.360831 N.4        1 MOL1        -0.5919
       2    H1      17.960693   19.210867   24.914098 H          1 MOL1         0.3682
       3    H2      17.600511   18.242019   23.629750 H          1 MOL1         0.3682
       4    H3      18.289934   17.599045   24.979853 H          1 MOL1         0.3682
       5    C1      19.673992   18.672483   23.781961 C.3        1 MOL1         0.0252
       6    H4      19.979520   17.777388   23.233834 H          1 MOL1         0.0971
       7    H5      20.368212   18.820382   24.613564 H          1 MOL1         0.0971
       8    C2      19.719289   19.894920   22.845896 C.3        1 MOL1        -0.1369
       9    H6      19.016012   19.751506   22.015661 H          1 MOL1         0.0997
      10    H7      19.371158   20.780178   23.394426 H          1 MOL1         0.0997
      11    C3      21.139643   20.175614   22.294715 C.3        1 MOL1        -0.1329
      12    H8      21.800932   20.440225   23.131478 H          1 MOL1         0.0997
      13    H9      21.101748   21.062839   21.647677 H          1 MOL1         0.0997
      14    C4      21.776379   19.001369   21.507988 C.3        1 MOL1        -0.1305
      15    H10     22.782089   19.302362   21.182669 H          1 MOL1         0.0997
      16    H11     21.920515   18.135667   22.168716 H          1 MOL1         0.0997
      17    C5      20.957986   18.577626   20.267148 C.3        1 MOL1        -0.2320
      18    H12     20.782189   19.431187   19.599687 H          1 MOL1         0.1008
      19    H13     21.495784   17.810104   19.695668 H          1 MOL1         0.1008
      20    H14     19.985487   18.156344   20.550701 H          1 MOL1         0.1008
@<TRIPOS>BOND
    1     1     2    1
    2     1     3    1
    3     1     4    1
    4     1     5    1
    5     5     6    1
    6     5     7    1
    7     5     8    1
    8     8     9    1
    9     8    10    1
   10     8    11    1
   11    11    12    1
   12    11    13    1
   13    11    14    1
   14    14    15    1
   15    14    16    1
   16    14    17    1
   17    17    18    1
   18    17    19    1
   19    17    20    1
@<TRIPOS>SUBSTRUCTURE
       1 MOL1            1 RESIDUE      1      MOL     
@<SCITEGIC>MOL_PROPERTY
VConf Rank
SciTegic.value.IntegerValue
567

@<SCITEGIC>MOL_PROPERTY
Conf_Id
SciTegic.value.IntegerValue
22

@<SCITEGIC>MOL_PROPERTY
Delta U+W
SciTegic.value.DoubleValue
0.731

@<SCITEGIC>MOL_PROPERTY
U+W
SciTegic.value.DoubleValue
-11.047

@<SCITEGIC>MOL_PROPERTY
Grad RMS
SciTegic.value.DoubleValue
0.000000

@<SCITEGIC>MOL_PROPERTY
U
SciTegic.value.DoubleValue
47.078

@<SCITEGIC>MOL_PROPERTY
W
SciTegic.value.DoubleValue
-58.125

@<SCITEGIC>MOL_PROPERTY
W(PB)
SciTegic.value.DoubleValue
-60.031

@<SCITEGIC>MOL_PROPERTY
W(SA)
SciTegic.value.DoubleValue
1.906

@<SCITEGIC>MOL_PROPERTY
Valence
SciTegic.value.DoubleValue
2.039

@<SCITEGIC>MOL_PROPERTY
Coulomb
SciTegic.value.DoubleValue
44.655

@<SCITEGIC>MOL_PROPERTY
VdW
SciTegic.value.DoubleValue
0.383

@<SCITEGIC>MOL_PROPERTY
VdW6
SciTegic.value.DoubleValue
-4.913

@<SCITEGIC>MOL_PROPERTY
VdW12
SciTegic.value.DoubleValue
5.296

@<SCITEGIC>MOL_PROPERTY
Bond
SciTegic.value.DoubleValue
0.159

@<SCITEGIC>MOL_PROPERTY
Angle
SciTegic.value.DoubleValue
0.856

@<SCITEGIC>MOL_PROPERTY
Pdih
SciTegic.value.DoubleValue
1.024

@<SCITEGIC>MOL_PROPERTY
Idih
SciTegic.value.DoubleValue
0.000

@<SCITEGIC>MOL_PROPERTY
Tether
SciTegic.value.DoubleValue
0.000

@<TRIPOS>MOLECULE
guest-s11_confgen4.mol2 : confsearch ligand conformer 568
          20          19           1
SMALL
USER_CHARGES
 
@<TRIPOS>ATOM
       1    N1      19.166713   19.647826   19.977154 N.4        1 MOL1        -0.5919
       2    H1      19.991611   19.996042   19.478533 H          1 MOL1         0.3682
       3    H2      18.872479   18.785887   19.507262 H          1 MOL1         0.3682
       4    H3      18.419545   20.335026   19.832276 H          1 MOL1         0.3682
       5    C1      19.447768   19.422874   21.449233 C.3        1 MOL1         0.0252
       6    H4      18.523230   19.080310   21.921752 H          1 MOL1         0.0971
       7    H5      19.724928   20.385575   21.884728 H          1 MOL1         0.0971
       8    C2      20.569546   18.399597   21.700608 C.3        1 MOL1        -0.1369
       9    H6      20.332851   17.475522   21.156564 H          1 MOL1         0.0997
      10    H7      21.509837   18.776491   21.276828 H          1 MOL1         0.0997
      11    C3      20.776569   18.048968   23.195972 C.3        1 MOL1        -0.1329
      12    H8      21.529972   17.250585   23.246173 H          1 MOL1         0.0997
      13    H9      19.857425   17.616008   23.614388 H          1 MOL1         0.0997
      14    C4      21.265463   19.224975   24.080947 C.3        1 MOL1        -0.1305
      15    H10     21.845299   18.809269   24.917059 H          1 MOL1         0.0997
      16    H11     21.962273   19.861719   23.518139 H          1 MOL1         0.0997
      17    C5      20.121537   20.078320   24.677665 C.3        1 MOL1        -0.2320
      18    H12     19.548546   20.603394   23.906399 H          1 MOL1         0.1008
      19    H13     19.425532   19.455644   25.254601 H          1 MOL1         0.1008
      20    H14     20.527484   20.838581   25.357515 H          1 MOL1         0.1008
@<TRIPOS>BOND
    1     1     2    1
    2     1     3    1
    3     1     4    1
    4     1     5    1
    5     5     6    1
    6     5     7    1
    7     5     8    1
    8     8     9    1
    9     8    10    1
   10     8    11    1
   11    11    12    1
   12    11    13    1
   13    11    14    1
   14    14    15    1
   15    14    16    1
   16    14    17    1
   17    17    18    1
   18    17    19    1
   19    17    20    1
@<TRIPOS>SUBSTRUCTURE
       1 MOL1            1 RESIDUE      1      MOL     
@<SCITEGIC>MOL_PROPERTY
VConf Rank
SciTegic.value.IntegerValue
568

@<SCITEGIC>MOL_PROPERTY
Conf_Id
SciTegic.value.IntegerValue
61

@<SCITEGIC>MOL_PROPERTY
Delta U+W
SciTegic.value.DoubleValue
2.669

@<SCITEGIC>MOL_PROPERTY
U+W
SciTegic.value.DoubleValue
-9.108

@<SCITEGIC>MOL_PROPERTY
Grad RMS
SciTegic.value.DoubleValue
0.000000

@<SCITEGIC>MOL_PROPERTY
U
SciTegic.value.DoubleValue
48.916

@<SCITEGIC>MOL_PROPERTY
W
SciTegic.value.DoubleValue
-58.025

@<SCITEGIC>MOL_PROPERTY
W(PB)
SciTegic.value.DoubleValue
-59.935

@<SCITEGIC>MOL_PROPERTY
W(SA)
SciTegic.value.DoubleValue
1.911

@<SCITEGIC>MOL_PROPERTY
Valence
SciTegic.value.DoubleValue
3.785

@<SCITEGIC>MOL_PROPERTY
Coulomb
SciTegic.value.DoubleValue
44.716

@<SCITEGIC>MOL_PROPERTY
VdW
SciTegic.value.DoubleValue
0.415

@<SCITEGIC>MOL_PROPERTY
VdW6
SciTegic.value.DoubleValue
-4.836

@<SCITEGIC>MOL_PROPERTY
VdW12
SciTegic.value.DoubleValue
5.251

@<SCITEGIC>MOL_PROPERTY
Bond
SciTegic.value.DoubleValue
0.175

@<SCITEGIC>MOL_PROPERTY
Angle
SciTegic.value.DoubleValue
1.195

@<SCITEGIC>MOL_PROPERTY
Pdih
SciTegic.value.DoubleValue
2.415

@<SCITEGIC>MOL_PROPERTY
Idih
SciTegic.value.DoubleValue
0.000

@<SCITEGIC>MOL_PROPERTY
Tether
SciTegic.value.DoubleValue
0.000

@<TRIPOS>MOLECULE
guest-s11_confgen4.mol2 : confsearch ligand conformer 569
          20          19           1
SMALL
USER_CHARGES
 
@<TRIPOS>ATOM
       1    N1      20.318688   17.590774   20.661459 N.4        1 MOL1        -0.5919
       2    H1      20.941335   16.936681   20.175542 H          1 MOL1         0.3682
       3    H2      19.466700   17.664169   20.096631 H          1 MOL1         0.3682
       4    H3      20.772843   18.507534   20.643601 H          1 MOL1         0.3682
       5    C1      20.018073   17.134187   22.076285 C.3        1 MOL1         0.0252
       6    H4      20.963219   17.017722   22.613381 H          1 MOL1         0.0971
       7    H5      19.549520   16.149223   21.999705 H          1 MOL1         0.0971
       8    C2      19.080874   18.074644   22.862843 C.3        1 MOL1        -0.1369
       9    H6      18.257380   18.410540   22.218756 H          1 MOL1         0.0997
      10    H7      18.614730   17.486769   23.664706 H          1 MOL1         0.0997
      11    C3      19.787241   19.290744   23.515465 C.3        1 MOL1        -0.1329
      12    H8      20.569259   18.935458   24.200801 H          1 MOL1         0.0997
      13    H9      19.052200   19.818773   24.138666 H          1 MOL1         0.0997
      14    C4      20.399874   20.292755   22.509003 C.3        1 MOL1        -0.1305
      15    H10     21.240566   19.827343   21.979399 H          1 MOL1         0.0997
      16    H11     19.650390   20.570258   21.754545 H          1 MOL1         0.0997
      17    C5      20.909155   21.567694   23.214824 C.3        1 MOL1        -0.2320
      18    H12     21.349206   22.263527   22.488724 H          1 MOL1         0.1008
      19    H13     20.090766   22.090122   23.727200 H          1 MOL1         0.1008
      20    H14     21.679277   21.326113   23.959016 H          1 MOL1         0.1008
@<TRIPOS>BOND
    1     1     2    1
    2     1     3    1
    3     1     4    1
    4     1     5    1
    5     5     6    1
    6     5     7    1
    7     5     8    1
    8     8     9    1
    9     8    10    1
   10     8    11    1
   11    11    12    1
   12    11    13    1
   13    11    14    1
   14    14    15    1
   15    14    16    1
   16    14    17    1
   17    17    18    1
   18    17    19    1
   19    17    20    1
@<TRIPOS>SUBSTRUCTURE
       1 MOL1            1 RESIDUE      1      MOL     
@<SCITEGIC>MOL_PROPERTY
VConf Rank
SciTegic.value.IntegerValue
569

@<SCITEGIC>MOL_PROPERTY
Conf_Id
SciTegic.value.IntegerValue
69

@<SCITEGIC>MOL_PROPERTY
Delta U+W
SciTegic.value.DoubleValue
2.811

@<SCITEGIC>MOL_PROPERTY
U+W
SciTegic.value.DoubleValue
-8.967

@<SCITEGIC>MOL_PROPERTY
Grad RMS
SciTegic.value.DoubleValue
0.000000

@<SCITEGIC>MOL_PROPERTY
U
SciTegic.value.DoubleValue
49.216

@<SCITEGIC>MOL_PROPERTY
W
SciTegic.value.DoubleValue
-58.183

@<SCITEGIC>MOL_PROPERTY
W(PB)
SciTegic.value.DoubleValue
-60.064

@<SCITEGIC>MOL_PROPERTY
W(SA)
SciTegic.value.DoubleValue
1.881

@<SCITEGIC>MOL_PROPERTY
Valence
SciTegic.value.DoubleValue
2.929

@<SCITEGIC>MOL_PROPERTY
Coulomb
SciTegic.value.DoubleValue
46.006

@<SCITEGIC>MOL_PROPERTY
VdW
SciTegic.value.DoubleValue
0.281

@<SCITEGIC>MOL_PROPERTY
VdW6
SciTegic.value.DoubleValue
-4.909

@<SCITEGIC>MOL_PROPERTY
VdW12
SciTegic.value.DoubleValue
5.190

@<SCITEGIC>MOL_PROPERTY
Bond
SciTegic.value.DoubleValue
0.156

@<SCITEGIC>MOL_PROPERTY
Angle
SciTegic.value.DoubleValue
0.974

@<SCITEGIC>MOL_PROPERTY
Pdih
SciTegic.value.DoubleValue
1.799

@<SCITEGIC>MOL_PROPERTY
Idih
SciTegic.value.DoubleValue
0.000

@<SCITEGIC>MOL_PROPERTY
Tether
SciTegic.value.DoubleValue
0.000

@<TRIPOS>MOLECULE
guest-s11_confgen4.mol2 : confsearch ligand conformer 570
          20          19           1
SMALL
USER_CHARGES
 
@<TRIPOS>ATOM
       1    N1      19.230279   19.904237   24.425609 N.4        1 MOL1        -0.5919
       2    H1      19.703422   19.000204   24.348870 H          1 MOL1         0.3682
       3    H2      19.900702   20.562847   24.834349 H          1 MOL1         0.3682
       4    H3      18.472636   19.790755   25.107328 H          1 MOL1         0.3682
       5    C1      18.711776   20.388640   23.085058 C.3        1 MOL1         0.0252
       6    H4      18.214609   21.345989   23.263568 H          1 MOL1         0.0971
       7    H5      17.960979   19.680181   22.724877 H          1 MOL1         0.0971
       8    C2      19.804522   20.584199   22.013078 C.3        1 MOL1        -0.1369
       9    H6      19.417347   21.291052   21.267205 H          1 MOL1         0.0997
      10    H7      20.684984   21.067681   22.456752 H          1 MOL1         0.0997
      11    C3      20.217074   19.288103   21.268963 C.3        1 MOL1        -0.1329
      12    H8      20.906786   19.563900   20.459202 H          1 MOL1         0.0997
      13    H9      19.335195   18.848868   20.782314 H          1 MOL1         0.0997
      14    C4      20.896502   18.224055   22.162548 C.3        1 MOL1        -0.1305
      15    H10     21.714422   18.683650   22.735017 H          1 MOL1         0.0997
      16    H11     20.175010   17.824260   22.886057 H          1 MOL1         0.0997
      17    C5      21.454697   17.052372   21.326729 C.3        1 MOL1        -0.2320
      18    H12     22.212679   17.401057   20.613214 H          1 MOL1         0.1008
      19    H13     21.924545   16.302107   21.975880 H          1 MOL1         0.1008
      20    H14     20.655907   16.555226   20.760999 H          1 MOL1         0.1008
@<TRIPOS>BOND
    1     1     2    1
    2     1     3    1
    3     1     4    1
    4     1     5    1
    5     5     6    1
    6     5     7    1
    7     5     8    1
    8     8     9    1
    9     8    10    1
   10     8    11    1
   11    11    12    1
   12    11    13    1
   13    11    14    1
   14    14    15    1
   15    14    16    1
   16    14    17    1
   17    17    18    1
   18    17    19    1
   19    17    20    1
@<TRIPOS>SUBSTRUCTURE
       1 MOL1            1 RESIDUE      1      MOL     
@<SCITEGIC>MOL_PROPERTY
VConf Rank
SciTegic.value.IntegerValue
570

@<SCITEGIC>MOL_PROPERTY
Conf_Id
SciTegic.value.IntegerValue
26

@<SCITEGIC>MOL_PROPERTY
Delta U+W
SciTegic.value.DoubleValue
2.809

@<SCITEGIC>MOL_PROPERTY
U+W
SciTegic.value.DoubleValue
-8.969

@<SCITEGIC>MOL_PROPERTY
Grad RMS
SciTegic.value.DoubleValue
0.000000

@<SCITEGIC>MOL_PROPERTY
U
SciTegic.value.DoubleValue
49.216

@<SCITEGIC>MOL_PROPERTY
W
SciTegic.value.DoubleValue
-58.185

@<SCITEGIC>MOL_PROPERTY
W(PB)
SciTegic.value.DoubleValue
-60.088

@<SCITEGIC>MOL_PROPERTY
W(SA)
SciTegic.value.DoubleValue
1.903

@<SCITEGIC>MOL_PROPERTY
Valence
SciTegic.value.DoubleValue
2.929

@<SCITEGIC>MOL_PROPERTY
Coulomb
SciTegic.value.DoubleValue
46.006

@<SCITEGIC>MOL_PROPERTY
VdW
SciTegic.value.DoubleValue
0.281

@<SCITEGIC>MOL_PROPERTY
VdW6
SciTegic.value.DoubleValue
-4.909

@<SCITEGIC>MOL_PROPERTY
VdW12
SciTegic.value.DoubleValue
5.190

@<SCITEGIC>MOL_PROPERTY
Bond
SciTegic.value.DoubleValue
0.156

@<SCITEGIC>MOL_PROPERTY
Angle
SciTegic.value.DoubleValue
0.974

@<SCITEGIC>MOL_PROPERTY
Pdih
SciTegic.value.DoubleValue
1.799

@<SCITEGIC>MOL_PROPERTY
Idih
SciTegic.value.DoubleValue
0.000

@<SCITEGIC>MOL_PROPERTY
Tether
SciTegic.value.DoubleValue
0.000

@<TRIPOS>MOLECULE
guest-s11_confgen4.mol2 : confsearch ligand conformer 571
          20          19           1
SMALL
USER_CHARGES
 
@<TRIPOS>ATOM
       1    N1      20.517470   18.710503   24.806425 N.4        1 MOL1        -0.5919
       2    H1      19.699032   18.164010   24.522798 H          1 MOL1         0.3682
       3    H2      21.261723   18.044435   25.035510 H          1 MOL1         0.3682
       4    H3      20.270167   19.192654   25.676874 H          1 MOL1         0.3682
       5    C1      20.944820   19.683340   23.724779 C.3        1 MOL1         0.0252
       6    H4      21.798252   20.250904   24.105611 H          1 MOL1         0.0971
       7    H5      20.122520   20.382635   23.552325 H          1 MOL1         0.0971
       8    C2      21.334710   19.001946   22.397383 C.3        1 MOL1        -0.1369
       9    H6      21.701634   19.767100   21.701367 H          1 MOL1         0.0997
      10    H7      22.182889   18.327714   22.575263 H          1 MOL1         0.0997
      11    C3      20.179975   18.205693   21.734386 C.3        1 MOL1        -0.1329
      12    H8      19.926588   17.341534   22.363059 H          1 MOL1         0.0997
      13    H9      20.539536   17.786369   20.784605 H          1 MOL1         0.0997
      14    C4      18.892751   19.027310   21.467870 C.3        1 MOL1        -0.1305
      15    H10     18.139679   18.363801   21.020111 H          1 MOL1         0.0997
      16    H11     18.461278   19.376544   22.415691 H          1 MOL1         0.0997
      17    C5      19.118220   20.231457   20.525513 C.3        1 MOL1        -0.2320
      18    H12     19.565019   19.911012   19.575435 H          1 MOL1         0.1008
      19    H13     18.164793   20.725553   20.298066 H          1 MOL1         0.1008
      20    H14     19.777817   20.980880   20.980371 H          1 MOL1         0.1008
@<TRIPOS>BOND
    1     1     2    1
    2     1     3    1
    3     1     4    1
    4     1     5    1
    5     5     6    1
    6     5     7    1
    7     5     8    1
    8     8     9    1
    9     8    10    1
   10     8    11    1
   11    11    12    1
   12    11    13    1
   13    11    14    1
   14    14    15    1
   15    14    16    1
   16    14    17    1
   17    17    18    1
   18    17    19    1
   19    17    20    1
@<TRIPOS>SUBSTRUCTURE
       1 MOL1            1 RESIDUE      1      MOL     
@<SCITEGIC>MOL_PROPERTY
VConf Rank
SciTegic.value.IntegerValue
571

@<SCITEGIC>MOL_PROPERTY
Conf_Id
SciTegic.value.IntegerValue
2

@<SCITEGIC>MOL_PROPERTY
Delta U+W
SciTegic.value.DoubleValue
0.994

@<SCITEGIC>MOL_PROPERTY
U+W
SciTegic.value.DoubleValue
-10.784

@<SCITEGIC>MOL_PROPERTY
Grad RMS
SciTegic.value.DoubleValue
0.000000

@<SCITEGIC>MOL_PROPERTY
U
SciTegic.value.DoubleValue
47.562

@<SCITEGIC>MOL_PROPERTY
W
SciTegic.value.DoubleValue
-58.346

@<SCITEGIC>MOL_PROPERTY
W(PB)
SciTegic.value.DoubleValue
-60.221

@<SCITEGIC>MOL_PROPERTY
W(SA)
SciTegic.value.DoubleValue
1.875

@<SCITEGIC>MOL_PROPERTY
Valence
SciTegic.value.DoubleValue
2.149

@<SCITEGIC>MOL_PROPERTY
Coulomb
SciTegic.value.DoubleValue
45.034

@<SCITEGIC>MOL_PROPERTY
VdW
SciTegic.value.DoubleValue
0.378

@<SCITEGIC>MOL_PROPERTY
VdW6
SciTegic.value.DoubleValue
-5.599

@<SCITEGIC>MOL_PROPERTY
VdW12
SciTegic.value.DoubleValue
5.977

@<SCITEGIC>MOL_PROPERTY
Bond
SciTegic.value.DoubleValue
0.185

@<SCITEGIC>MOL_PROPERTY
Angle
SciTegic.value.DoubleValue
0.935

@<SCITEGIC>MOL_PROPERTY
Pdih
SciTegic.value.DoubleValue
1.028

@<SCITEGIC>MOL_PROPERTY
Idih
SciTegic.value.DoubleValue
0.000

@<SCITEGIC>MOL_PROPERTY
Tether
SciTegic.value.DoubleValue
0.000

@<TRIPOS>MOLECULE
guest-s11_confgen4.mol2 : confsearch ligand conformer 572
          20          19           1
SMALL
USER_CHARGES
 
@<TRIPOS>ATOM
       1    N1      18.874248   17.045638   22.318162 N.4        1 MOL1        -0.5919
       2    H1      18.379650   16.743915   23.163369 H          1 MOL1         0.3682
       3    H2      18.315748   17.789803   21.890102 H          1 MOL1         0.3682
       4    H3      18.866482   16.252326   21.668620 H          1 MOL1         0.3682
       5    C1      20.284877   17.508945   22.625518 C.3        1 MOL1         0.0252
       6    H4      20.765357   17.783831   21.682910 H          1 MOL1         0.0971
       7    H5      20.829316   16.660415   23.048708 H          1 MOL1         0.0971
       8    C2      20.346870   18.697324   23.606436 C.3        1 MOL1        -0.1369
       9    H6      19.892353   18.399634   24.560602 H          1 MOL1         0.0997
      10    H7      21.398617   18.915887   23.831363 H          1 MOL1         0.0997
      11    C3      19.647895   19.981137   23.086580 C.3        1 MOL1        -0.1329
      12    H8      19.771830   20.777958   23.832848 H          1 MOL1         0.0997
      13    H9      18.566131   19.803937   23.018797 H          1 MOL1         0.0997
      14    C4      20.160115   20.490473   21.714996 C.3        1 MOL1        -0.1305
      15    H10     19.957992   19.745982   20.933090 H          1 MOL1         0.0997
      16    H11     19.585069   21.384509   21.435943 H          1 MOL1         0.0997
      17    C5      21.664123   20.846556   21.716060 C.3        1 MOL1        -0.2320
      18    H12     22.288076   19.958810   21.877903 H          1 MOL1         0.1008
      19    H13     21.956366   21.284162   20.752742 H          1 MOL1         0.1008
      20    H14     21.896095   21.578032   22.500975 H          1 MOL1         0.1008
@<TRIPOS>BOND
    1     1     2    1
    2     1     3    1
    3     1     4    1
    4     1     5    1
    5     5     6    1
    6     5     7    1
    7     5     8    1
    8     8     9    1
    9     8    10    1
   10     8    11    1
   11    11    12    1
   12    11    13    1
   13    11    14    1
   14    14    15    1
   15    14    16    1
   16    14    17    1
   17    17    18    1
   18    17    19    1
   19    17    20    1
@<TRIPOS>SUBSTRUCTURE
       1 MOL1            1 RESIDUE      1      MOL     
@<SCITEGIC>MOL_PROPERTY
VConf Rank
SciTegic.value.IntegerValue
572

@<SCITEGIC>MOL_PROPERTY
Conf_Id
SciTegic.value.IntegerValue
1

@<SCITEGIC>MOL_PROPERTY
Delta U+W
SciTegic.value.DoubleValue
1.032

@<SCITEGIC>MOL_PROPERTY
U+W
SciTegic.value.DoubleValue
-10.746

@<SCITEGIC>MOL_PROPERTY
Grad RMS
SciTegic.value.DoubleValue
0.000000

@<SCITEGIC>MOL_PROPERTY
U
SciTegic.value.DoubleValue
47.562

@<SCITEGIC>MOL_PROPERTY
W
SciTegic.value.DoubleValue
-58.308

@<SCITEGIC>MOL_PROPERTY
W(PB)
SciTegic.value.DoubleValue
-60.184

@<SCITEGIC>MOL_PROPERTY
W(SA)
SciTegic.value.DoubleValue
1.877

@<SCITEGIC>MOL_PROPERTY
Valence
SciTegic.value.DoubleValue
2.149

@<SCITEGIC>MOL_PROPERTY
Coulomb
SciTegic.value.DoubleValue
45.035

@<SCITEGIC>MOL_PROPERTY
VdW
SciTegic.value.DoubleValue
0.378

@<SCITEGIC>MOL_PROPERTY
VdW6
SciTegic.value.DoubleValue
-5.599

@<SCITEGIC>MOL_PROPERTY
VdW12
SciTegic.value.DoubleValue
5.978

@<SCITEGIC>MOL_PROPERTY
Bond
SciTegic.value.DoubleValue
0.185

@<SCITEGIC>MOL_PROPERTY
Angle
SciTegic.value.DoubleValue
0.935

@<SCITEGIC>MOL_PROPERTY
Pdih
SciTegic.value.DoubleValue
1.028

@<SCITEGIC>MOL_PROPERTY
Idih
SciTegic.value.DoubleValue
0.000

@<SCITEGIC>MOL_PROPERTY
Tether
SciTegic.value.DoubleValue
0.000

@<TRIPOS>MOLECULE
guest-s11_confgen4.mol2 : confsearch ligand conformer 573
          20          19           1
SMALL
USER_CHARGES
 
@<TRIPOS>ATOM
       1    N1      21.674489   20.386264   21.154497 N.4        1 MOL1        -0.5919
       2    H1      21.566923   20.347913   20.136141 H          1 MOL1         0.3682
       3    H2      20.942494   21.006102   21.513202 H          1 MOL1         0.3682
       4    H3      22.572682   20.843797   21.342271 H          1 MOL1         0.3682
       5    C1      21.602939   19.007525   21.781964 C.3        1 MOL1         0.0252
       6    H4      21.755193   19.118960   22.856637 H          1 MOL1         0.0971
       7    H5      22.435847   18.421833   21.383526 H          1 MOL1         0.0971
       8    C2      20.280627   18.262376   21.500967 C.3        1 MOL1        -0.1369
       9    H6      20.160839   18.180260   20.412515 H          1 MOL1         0.0997
      10    H7      20.357613   17.232222   21.873089 H          1 MOL1         0.0997
      11    C3      19.015355   18.937462   22.095667 C.3        1 MOL1        -0.1329
      12    H8      18.147629   18.597568   21.513474 H          1 MOL1         0.0997
      13    H9      19.053844   20.025216   21.954121 H          1 MOL1         0.0997
      14    C4      18.732559   18.606672   23.583833 C.3        1 MOL1        -0.1305
      15    H10     17.771320   19.061780   23.861041 H          1 MOL1         0.0997
      16    H11     18.599456   17.522381   23.703736 H          1 MOL1         0.0997
      17    C5      19.812737   19.103686   24.569797 C.3        1 MOL1        -0.2320
      18    H12     20.052808   20.161027   24.399050 H          1 MOL1         0.1008
      19    H13     19.460462   19.003037   25.604543 H          1 MOL1         0.1008
      20    H14     20.733472   18.514681   24.483919 H          1 MOL1         0.1008
@<TRIPOS>BOND
    1     1     2    1
    2     1     3    1
    3     1     4    1
    4     1     5    1
    5     5     6    1
    6     5     7    1
    7     5     8    1
    8     8     9    1
    9     8    10    1
   10     8    11    1
   11    11    12    1
   12    11    13    1
   13    11    14    1
   14    14    15    1
   15    14    16    1
   16    14    17    1
   17    17    18    1
   18    17    19    1
   19    17    20    1
@<TRIPOS>SUBSTRUCTURE
       1 MOL1            1 RESIDUE      1      MOL     
@<SCITEGIC>MOL_PROPERTY
VConf Rank
SciTegic.value.IntegerValue
573

@<SCITEGIC>MOL_PROPERTY
Conf_Id
SciTegic.value.IntegerValue
80

@<SCITEGIC>MOL_PROPERTY
Delta U+W
SciTegic.value.DoubleValue
2.920

@<SCITEGIC>MOL_PROPERTY
U+W
SciTegic.value.DoubleValue
-8.857

@<SCITEGIC>MOL_PROPERTY
Grad RMS
SciTegic.value.DoubleValue
0.000000

@<SCITEGIC>MOL_PROPERTY
U
SciTegic.value.DoubleValue
49.434

@<SCITEGIC>MOL_PROPERTY
W
SciTegic.value.DoubleValue
-58.292

@<SCITEGIC>MOL_PROPERTY
W(PB)
SciTegic.value.DoubleValue
-60.170

@<SCITEGIC>MOL_PROPERTY
W(SA)
SciTegic.value.DoubleValue
1.879

@<SCITEGIC>MOL_PROPERTY
Valence
SciTegic.value.DoubleValue
3.798

@<SCITEGIC>MOL_PROPERTY
Coulomb
SciTegic.value.DoubleValue
45.253

@<SCITEGIC>MOL_PROPERTY
VdW
SciTegic.value.DoubleValue
0.384

@<SCITEGIC>MOL_PROPERTY
VdW6
SciTegic.value.DoubleValue
-5.595

@<SCITEGIC>MOL_PROPERTY
VdW12
SciTegic.value.DoubleValue
5.979

@<SCITEGIC>MOL_PROPERTY
Bond
SciTegic.value.DoubleValue
0.198

@<SCITEGIC>MOL_PROPERTY
Angle
SciTegic.value.DoubleValue
1.368

@<SCITEGIC>MOL_PROPERTY
Pdih
SciTegic.value.DoubleValue
2.231

@<SCITEGIC>MOL_PROPERTY
Idih
SciTegic.value.DoubleValue
0.000

@<SCITEGIC>MOL_PROPERTY
Tether
SciTegic.value.DoubleValue
0.000

@<TRIPOS>MOLECULE
guest-s11_confgen4.mol2 : confsearch ligand conformer 574
          20          19           1
SMALL
USER_CHARGES
 
@<TRIPOS>ATOM
       1    N1      20.214064   20.916866   24.068843 N.4        1 MOL1        -0.5919
       2    H1      19.848850   21.836749   23.803281 H          1 MOL1         0.3682
       3    H2      20.317192   20.920336   25.088990 H          1 MOL1         0.3682
       4    H3      21.155512   20.839144   23.673467 H          1 MOL1         0.3682
       5    C1      19.310603   19.793497   23.598143 C.3        1 MOL1         0.0252
       6    H4      18.343823   19.920508   24.092842 H          1 MOL1         0.0971
       7    H5      19.740719   18.850688   23.939653 H          1 MOL1         0.0971
       8    C2      19.096627   19.764161   22.069719 C.3        1 MOL1        -0.1369
       9    H6      18.335039   19.012494   21.823554 H          1 MOL1         0.0997
      10    H7      18.673231   20.730969   21.766672 H          1 MOL1         0.0997
      11    C3      20.380414   19.495885   21.238908 C.3        1 MOL1        -0.1329
      12    H8      21.230238   20.058340   21.646540 H          1 MOL1         0.0997
      13    H9      20.218976   19.900673   20.230191 H          1 MOL1         0.0997
      14    C4      20.760859   18.000969   21.082290 C.3        1 MOL1        -0.1305
      15    H10     19.943015   17.460388   20.585616 H          1 MOL1         0.0997
      16    H11     21.623087   17.934384   20.404000 H          1 MOL1         0.0997
      17    C5      21.120490   17.286821   22.403875 C.3        1 MOL1        -0.2320
      18    H12     20.231749   17.124738   23.025101 H          1 MOL1         0.1008
      19    H13     21.555154   16.299993   22.198530 H          1 MOL1         0.1008
      20    H14     21.854888   17.862647   22.981666 H          1 MOL1         0.1008
@<TRIPOS>BOND
    1     1     2    1
    2     1     3    1
    3     1     4    1
    4     1     5    1
    5     5     6    1
    6     5     7    1
    7     5     8    1
    8     8     9    1
    9     8    10    1
   10     8    11    1
   11    11    12    1
   12    11    13    1
   13    11    14    1
   14    14    15    1
   15    14    16    1
   16    14    17    1
   17    17    18    1
   18    17    19    1
   19    17    20    1
@<TRIPOS>SUBSTRUCTURE
       1 MOL1            1 RESIDUE      1      MOL     
@<SCITEGIC>MOL_PROPERTY
VConf Rank
SciTegic.value.IntegerValue
574

@<SCITEGIC>MOL_PROPERTY
Conf_Id
SciTegic.value.IntegerValue
65

@<SCITEGIC>MOL_PROPERTY
Delta U+W
SciTegic.value.DoubleValue
2.949

@<SCITEGIC>MOL_PROPERTY
U+W
SciTegic.value.DoubleValue
-8.829

@<SCITEGIC>MOL_PROPERTY
Grad RMS
SciTegic.value.DoubleValue
0.000000

@<SCITEGIC>MOL_PROPERTY
U
SciTegic.value.DoubleValue
49.435

@<SCITEGIC>MOL_PROPERTY
W
SciTegic.value.DoubleValue
-58.263

@<SCITEGIC>MOL_PROPERTY
W(PB)
SciTegic.value.DoubleValue
-60.125

@<SCITEGIC>MOL_PROPERTY
W(SA)
SciTegic.value.DoubleValue
1.862

@<SCITEGIC>MOL_PROPERTY
Valence
SciTegic.value.DoubleValue
3.797

@<SCITEGIC>MOL_PROPERTY
Coulomb
SciTegic.value.DoubleValue
45.253

@<SCITEGIC>MOL_PROPERTY
VdW
SciTegic.value.DoubleValue
0.384

@<SCITEGIC>MOL_PROPERTY
VdW6
SciTegic.value.DoubleValue
-5.596

@<SCITEGIC>MOL_PROPERTY
VdW12
SciTegic.value.DoubleValue
5.980

@<SCITEGIC>MOL_PROPERTY
Bond
SciTegic.value.DoubleValue
0.198

@<SCITEGIC>MOL_PROPERTY
Angle
SciTegic.value.DoubleValue
1.369

@<SCITEGIC>MOL_PROPERTY
Pdih
SciTegic.value.DoubleValue
2.230

@<SCITEGIC>MOL_PROPERTY
Idih
SciTegic.value.DoubleValue
0.000

@<SCITEGIC>MOL_PROPERTY
Tether
SciTegic.value.DoubleValue
0.000

@<TRIPOS>MOLECULE
guest-s11_confgen4.mol2 : confsearch ligand conformer 575
          20          19           1
SMALL
USER_CHARGES
 
@<TRIPOS>ATOM
       1    N1      20.522423   20.408188   23.984585 N.4        1 MOL1        -0.5919
       2    H1      20.430047   21.400570   24.226095 H          1 MOL1         0.3682
       3    H2      19.579134   20.045028   23.817121 H          1 MOL1         0.3682
       4    H3      20.889525   19.932376   24.814793 H          1 MOL1         0.3682
       5    C1      21.416521   20.202790   22.777127 C.3        1 MOL1         0.0252
       6    H4      22.397926   20.611177   23.033219 H          1 MOL1         0.0971
       7    H5      21.015695   20.782303   21.941242 H          1 MOL1         0.0971
       8    C2      21.578523   18.726577   22.361241 C.3        1 MOL1        -0.1369
       9    H6      22.515984   18.640264   21.795974 H          1 MOL1         0.0997
      10    H7      21.710042   18.101055   23.254120 H          1 MOL1         0.0997
      11    C3      20.437262   18.160351   21.474239 C.3        1 MOL1        -0.1329
      12    H8      20.707879   17.128505   21.210450 H          1 MOL1         0.0997
      13    H9      20.398106   18.705747   20.521099 H          1 MOL1         0.0997
      14    C4      19.033309   18.135018   22.130587 C.3        1 MOL1        -0.1305
      15    H10     18.502626   17.235788   21.787048 H          1 MOL1         0.0997
      16    H11     19.120243   18.027865   23.220185 H          1 MOL1         0.0997
      17    C5      18.168112   19.363710   21.762389 C.3        1 MOL1        -0.2320
      18    H12     18.659184   20.311385   22.008067 H          1 MOL1         0.1008
      19    H13     17.952156   19.374991   20.686027 H          1 MOL1         0.1008
      20    H14     17.206731   19.332530   22.291497 H          1 MOL1         0.1008
@<TRIPOS>BOND
    1     1     2    1
    2     1     3    1
    3     1     4    1
    4     1     5    1
    5     5     6    1
    6     5     7    1
    7     5     8    1
    8     8     9    1
    9     8    10    1
   10     8    11    1
   11    11    12    1
   12    11    13    1
   13    11    14    1
   14    14    15    1
   15    14    16    1
   16    14    17    1
   17    17    18    1
   18    17    19    1
   19    17    20    1
@<TRIPOS>SUBSTRUCTURE
       1 MOL1            1 RESIDUE      1      MOL     
@<SCITEGIC>MOL_PROPERTY
VConf Rank
SciTegic.value.IntegerValue
575

@<SCITEGIC>MOL_PROPERTY
Conf_Id
SciTegic.value.IntegerValue
77

@<SCITEGIC>MOL_PROPERTY
Delta U+W
SciTegic.value.DoubleValue
5.366

@<SCITEGIC>MOL_PROPERTY
U+W
SciTegic.value.DoubleValue
-6.412

@<SCITEGIC>MOL_PROPERTY
Grad RMS
SciTegic.value.DoubleValue
0.000000

@<SCITEGIC>MOL_PROPERTY
U
SciTegic.value.DoubleValue
51.542

@<SCITEGIC>MOL_PROPERTY
W
SciTegic.value.DoubleValue
-57.954

@<SCITEGIC>MOL_PROPERTY
W(PB)
SciTegic.value.DoubleValue
-59.811

@<SCITEGIC>MOL_PROPERTY
W(SA)
SciTegic.value.DoubleValue
1.857

@<SCITEGIC>MOL_PROPERTY
Valence
SciTegic.value.DoubleValue
5.347

@<SCITEGIC>MOL_PROPERTY
Coulomb
SciTegic.value.DoubleValue
45.870

@<SCITEGIC>MOL_PROPERTY
VdW
SciTegic.value.DoubleValue
0.325

@<SCITEGIC>MOL_PROPERTY
VdW6
SciTegic.value.DoubleValue
-6.161

@<SCITEGIC>MOL_PROPERTY
VdW12
SciTegic.value.DoubleValue
6.486

@<SCITEGIC>MOL_PROPERTY
Bond
SciTegic.value.DoubleValue
0.201

@<SCITEGIC>MOL_PROPERTY
Angle
SciTegic.value.DoubleValue
1.484

@<SCITEGIC>MOL_PROPERTY
Pdih
SciTegic.value.DoubleValue
3.662

@<SCITEGIC>MOL_PROPERTY
Idih
SciTegic.value.DoubleValue
0.000

@<SCITEGIC>MOL_PROPERTY
Tether
SciTegic.value.DoubleValue
0.000

@<TRIPOS>MOLECULE
guest-s11_confgen4.mol2 : confsearch ligand conformer 576
          20          19           1
SMALL
USER_CHARGES
 
@<TRIPOS>ATOM
       1    N1      19.472206   20.724052   21.753117 N.4        1 MOL1        -0.5919
       2    H1      18.955182   20.643316   20.871883 H          1 MOL1         0.3682
       3    H2      18.973030   20.165160   22.451822 H          1 MOL1         0.3682
       4    H3      19.411591   21.705110   22.045580 H          1 MOL1         0.3682
       5    C1      20.910795   20.267868   21.605061 C.3        1 MOL1         0.0252
       6    H4      21.431276   20.436020   22.551647 H          1 MOL1         0.0971
       7    H5      21.371841   20.906215   20.846463 H          1 MOL1         0.0971
       8    C2      21.059846   18.792903   21.180008 C.3        1 MOL1        -0.1369
       9    H6      20.325644   18.555090   20.398853 H          1 MOL1         0.0997
      10    H7      22.044785   18.679753   20.707881 H          1 MOL1         0.0997
      11    C3      20.966977   17.759333   22.334553 C.3        1 MOL1        -0.1329
      12    H8      21.788627   17.918483   23.046612 H          1 MOL1         0.0997
      13    H9      21.143975   16.765531   21.900322 H          1 MOL1         0.0997
      14    C4      19.611979   17.719803   23.086175 C.3        1 MOL1        -0.1305
      15    H10     18.793159   18.019883   22.418531 H          1 MOL1         0.0997
      16    H11     19.397645   16.678801   23.366593 H          1 MOL1         0.0997
      17    C5      19.610019   18.567615   24.380406 C.3        1 MOL1        -0.2320
      18    H12     18.617420   18.555766   24.849222 H          1 MOL1         0.1008
      19    H13     20.323886   18.161384   25.108892 H          1 MOL1         0.1008
      20    H14     19.885993   19.611781   24.198337 H          1 MOL1         0.1008
@<TRIPOS>BOND
    1     1     2    1
    2     1     3    1
    3     1     4    1
    4     1     5    1
    5     5     6    1
    6     5     7    1
    7     5     8    1
    8     8     9    1
    9     8    10    1
   10     8    11    1
   11    11    12    1
   12    11    13    1
   13    11    14    1
   14    14    15    1
   15    14    16    1
   16    14    17    1
   17    17    18    1
   18    17    19    1
   19    17    20    1
@<TRIPOS>SUBSTRUCTURE
       1 MOL1            1 RESIDUE      1      MOL     
@<SCITEGIC>MOL_PROPERTY
VConf Rank
SciTegic.value.IntegerValue
576

@<SCITEGIC>MOL_PROPERTY
Conf_Id
SciTegic.value.IntegerValue
67

@<SCITEGIC>MOL_PROPERTY
Delta U+W
SciTegic.value.DoubleValue
5.353

@<SCITEGIC>MOL_PROPERTY
U+W
SciTegic.value.DoubleValue
-6.425

@<SCITEGIC>MOL_PROPERTY
Grad RMS
SciTegic.value.DoubleValue
0.000000

@<SCITEGIC>MOL_PROPERTY
U
SciTegic.value.DoubleValue
51.541

@<SCITEGIC>MOL_PROPERTY
W
SciTegic.value.DoubleValue
-57.966

@<SCITEGIC>MOL_PROPERTY
W(PB)
SciTegic.value.DoubleValue
-59.821

@<SCITEGIC>MOL_PROPERTY
W(SA)
SciTegic.value.DoubleValue
1.855

@<SCITEGIC>MOL_PROPERTY
Valence
SciTegic.value.DoubleValue
5.347

@<SCITEGIC>MOL_PROPERTY
Coulomb
SciTegic.value.DoubleValue
45.870

@<SCITEGIC>MOL_PROPERTY
VdW
SciTegic.value.DoubleValue
0.325

@<SCITEGIC>MOL_PROPERTY
VdW6
SciTegic.value.DoubleValue
-6.161

@<SCITEGIC>MOL_PROPERTY
VdW12
SciTegic.value.DoubleValue
6.486

@<SCITEGIC>MOL_PROPERTY
Bond
SciTegic.value.DoubleValue
0.201

@<SCITEGIC>MOL_PROPERTY
Angle
SciTegic.value.DoubleValue
1.485

@<SCITEGIC>MOL_PROPERTY
Pdih
SciTegic.value.DoubleValue
3.662

@<SCITEGIC>MOL_PROPERTY
Idih
SciTegic.value.DoubleValue
0.000

@<SCITEGIC>MOL_PROPERTY
Tether
SciTegic.value.DoubleValue
0.000

@<TRIPOS>MOLECULE
guest-s11_confgen4.mol2 : confsearch ligand conformer 577
          20          19           1
SMALL
USER_CHARGES
 
@<TRIPOS>ATOM
       1    N1      22.013873   21.724417   22.818852 N.4        1 MOL1        -0.5919
       2    H1      21.710736   21.989952   23.761183 H          1 MOL1         0.3682
       3    H2      23.012075   21.949994   22.753230 H          1 MOL1         0.3682
       4    H3      21.526297   22.340546   22.160793 H          1 MOL1         0.3682
       5    C1      21.747029   20.261102   22.529039 C.3        1 MOL1         0.0252
       6    H4      22.319109   19.665346   23.245501 H          1 MOL1         0.0971
       7    H5      22.120651   20.042278   21.525028 H          1 MOL1         0.0971
       8    C2      20.256280   19.888587   22.619394 C.3        1 MOL1        -0.1369
       9    H6      19.881356   20.124817   23.624230 H          1 MOL1         0.0997
      10    H7      19.683563   20.500448   21.909684 H          1 MOL1         0.0997
      11    C3      20.027882   18.390760   22.317597 C.3        1 MOL1        -0.1329
      12    H8      20.606433   17.781638   23.026144 H          1 MOL1         0.0997
      13    H9      20.408797   18.156825   21.313619 H          1 MOL1         0.0997
      14    C4      18.534198   18.005119   22.405496 C.3        1 MOL1        -0.1305
      15    H10     18.149611   18.235588   23.409002 H          1 MOL1         0.0997
      16    H11     17.952010   18.610641   21.696660 H          1 MOL1         0.0997
      17    C5      18.310849   16.507858   22.103331 C.3        1 MOL1        -0.2320
      18    H12     18.853606   15.875391   22.817905 H          1 MOL1         0.1008
      19    H13     17.245108   16.253488   22.170679 H          1 MOL1         0.1008
      20    H14     18.654329   16.253393   21.092152 H          1 MOL1         0.1008
@<TRIPOS>BOND
    1     1     2    1
    2     1     3    1
    3     1     4    1
    4     1     5    1
    5     5     6    1
    6     5     7    1
    7     5     8    1
    8     8     9    1
    9     8    10    1
   10     8    11    1
   11    11    12    1
   12    11    13    1
   13    11    14    1
   14    14    15    1
   15    14    16    1
   16    14    17    1
   17    17    18    1
   18    17    19    1
   19    17    20    1
@<TRIPOS>SUBSTRUCTURE
       1 MOL1            1 RESIDUE      1      MOL     
@<SCITEGIC>MOL_PROPERTY
VConf Rank
SciTegic.value.IntegerValue
577

@<SCITEGIC>MOL_PROPERTY
Conf_Id
SciTegic.value.IntegerValue
72

@<SCITEGIC>MOL_PROPERTY
Delta U+W
SciTegic.value.DoubleValue
0.000

@<SCITEGIC>MOL_PROPERTY
U+W
SciTegic.value.DoubleValue
-11.778

@<SCITEGIC>MOL_PROPERTY
Grad RMS
SciTegic.value.DoubleValue
0.000000

@<SCITEGIC>MOL_PROPERTY
U
SciTegic.value.DoubleValue
45.772

@<SCITEGIC>MOL_PROPERTY
W
SciTegic.value.DoubleValue
-57.550

@<SCITEGIC>MOL_PROPERTY
W(PB)
SciTegic.value.DoubleValue
-59.511

@<SCITEGIC>MOL_PROPERTY
W(SA)
SciTegic.value.DoubleValue
1.961

@<SCITEGIC>MOL_PROPERTY
Valence
SciTegic.value.DoubleValue
1.299

@<SCITEGIC>MOL_PROPERTY
Coulomb
SciTegic.value.DoubleValue
44.177

@<SCITEGIC>MOL_PROPERTY
VdW
SciTegic.value.DoubleValue
0.297

@<SCITEGIC>MOL_PROPERTY
VdW6
SciTegic.value.DoubleValue
-3.490

@<SCITEGIC>MOL_PROPERTY
VdW12
SciTegic.value.DoubleValue
3.786

@<SCITEGIC>MOL_PROPERTY
Bond
SciTegic.value.DoubleValue
0.096

@<SCITEGIC>MOL_PROPERTY
Angle
SciTegic.value.DoubleValue
0.381

@<SCITEGIC>MOL_PROPERTY
Pdih
SciTegic.value.DoubleValue
0.822

@<SCITEGIC>MOL_PROPERTY
Idih
SciTegic.value.DoubleValue
0.000

@<SCITEGIC>MOL_PROPERTY
Tether
SciTegic.value.DoubleValue
0.000

@<TRIPOS>MOLECULE
guest-s11_confgen4.mol2 : confsearch ligand conformer 578
          20          19           1
SMALL
USER_CHARGES
 
@<TRIPOS>ATOM
       1    N1      18.249298   21.509769   22.889199 N.4        1 MOL1        -0.5919
       2    H1      17.455891   20.974416   22.522812 H          1 MOL1         0.3682
       3    H2      18.196851   21.464566   23.911730 H          1 MOL1         0.3682
       4    H3      18.093806   22.488794   22.626681 H          1 MOL1         0.3682
       5    C1      19.573390   20.990195   22.366327 C.3        1 MOL1         0.0252
       6    H4      20.367706   21.623281   22.770995 H          1 MOL1         0.0971
       7    H5      19.571401   21.095635   21.278033 H          1 MOL1         0.0971
       8    C2      19.838853   19.521701   22.743586 C.3        1 MOL1        -0.1369
       9    H6      19.824151   19.417475   23.836624 H          1 MOL1         0.0997
      10    H7      19.027044   18.898414   22.347928 H          1 MOL1         0.0997
      11    C3      21.199851   19.035018   22.192267 C.3        1 MOL1        -0.1329
      12    H8      21.989951   19.716444   22.537435 H          1 MOL1         0.0997
      13    H9      21.197856   19.095795   21.095048 H          1 MOL1         0.0997
      14    C4      21.564954   17.595735   22.630257 C.3        1 MOL1        -0.1305
      15    H10     22.584073   17.370217   22.286053 H          1 MOL1         0.0997
      16    H11     21.591564   17.536315   23.727361 H          1 MOL1         0.0997
      17    C5      20.602553   16.521171   22.074715 C.3        1 MOL1        -0.2320
      18    H12     20.536268   16.577743   20.980447 H          1 MOL1         0.1008
      19    H13     20.956504   15.515864   22.337447 H          1 MOL1         0.1008
      20    H14     19.592064   16.632350   22.486993 H          1 MOL1         0.1008
@<TRIPOS>BOND
    1     1     2    1
    2     1     3    1
    3     1     4    1
    4     1     5    1
    5     5     6    1
    6     5     7    1
    7     5     8    1
    8     8     9    1
    9     8    10    1
   10     8    11    1
   11    11    12    1
   12    11    13    1
   13    11    14    1
   14    14    15    1
   15    14    16    1
   16    14    17    1
   17    17    18    1
   18    17    19    1
   19    17    20    1
@<TRIPOS>SUBSTRUCTURE
       1 MOL1            1 RESIDUE      1      MOL     
@<SCITEGIC>MOL_PROPERTY
VConf Rank
SciTegic.value.IntegerValue
578

@<SCITEGIC>MOL_PROPERTY
Conf_Id
SciTegic.value.IntegerValue
42

@<SCITEGIC>MOL_PROPERTY
Delta U+W
SciTegic.value.DoubleValue
0.508

@<SCITEGIC>MOL_PROPERTY
U+W
SciTegic.value.DoubleValue
-11.270

@<SCITEGIC>MOL_PROPERTY
Grad RMS
SciTegic.value.DoubleValue
0.000000

@<SCITEGIC>MOL_PROPERTY
U
SciTegic.value.DoubleValue
46.486

@<SCITEGIC>MOL_PROPERTY
W
SciTegic.value.DoubleValue
-57.756

@<SCITEGIC>MOL_PROPERTY
W(PB)
SciTegic.value.DoubleValue
-59.705

@<SCITEGIC>MOL_PROPERTY
W(SA)
SciTegic.value.DoubleValue
1.949

@<SCITEGIC>MOL_PROPERTY
Valence
SciTegic.value.DoubleValue
1.806

@<SCITEGIC>MOL_PROPERTY
Coulomb
SciTegic.value.DoubleValue
44.248

@<SCITEGIC>MOL_PROPERTY
VdW
SciTegic.value.DoubleValue
0.433

@<SCITEGIC>MOL_PROPERTY
VdW6
SciTegic.value.DoubleValue
-4.089

@<SCITEGIC>MOL_PROPERTY
VdW12
SciTegic.value.DoubleValue
4.522

@<SCITEGIC>MOL_PROPERTY
Bond
SciTegic.value.DoubleValue
0.131

@<SCITEGIC>MOL_PROPERTY
Angle
SciTegic.value.DoubleValue
0.628

@<SCITEGIC>MOL_PROPERTY
Pdih
SciTegic.value.DoubleValue
1.047

@<SCITEGIC>MOL_PROPERTY
Idih
SciTegic.value.DoubleValue
0.000

@<SCITEGIC>MOL_PROPERTY
Tether
SciTegic.value.DoubleValue
0.000

@<TRIPOS>MOLECULE
guest-s11_confgen4.mol2 : confsearch ligand conformer 579
          20          19           1
SMALL
USER_CHARGES
 
@<TRIPOS>ATOM
       1    N1      23.082236   18.668480   21.915750 N.4        1 MOL1        -0.5919
       2    H1      23.391380   19.619680   22.139383 H          1 MOL1         0.3682
       3    H2      23.196807   18.106836   22.765317 H          1 MOL1         0.3682
       4    H3      23.740826   18.297162   21.222956 H          1 MOL1         0.3682
       5    C1      21.655073   18.641574   21.406767 C.3        1 MOL1         0.0252
       6    H4      21.403777   17.606232   21.160952 H          1 MOL1         0.0971
       7    H5      21.613530   19.232301   20.487631 H          1 MOL1         0.0971
       8    C2      20.639443   19.193357   22.423281 C.3        1 MOL1        -0.1369
       9    H6      20.702385   18.604783   23.347232 H          1 MOL1         0.0997
      10    H7      20.904746   20.227714   22.679275 H          1 MOL1         0.0997
      11    C3      19.198659   19.148984   21.861760 C.3        1 MOL1        -0.1329
      12    H8      18.916279   18.108564   21.648742 H          1 MOL1         0.0997
      13    H9      19.173405   19.678638   20.899173 H          1 MOL1         0.0997
      14    C4      18.148682   19.787911   22.803029 C.3        1 MOL1        -0.1305
      15    H10     18.414403   20.836056   22.999654 H          1 MOL1         0.0997
      16    H11     17.178710   19.809058   22.286651 H          1 MOL1         0.0997
      17    C5      17.983526   19.033566   24.142141 C.3        1 MOL1        -0.2320
      18    H12     18.894332   19.088061   24.751145 H          1 MOL1         0.1008
      19    H13     17.167028   19.470974   24.731172 H          1 MOL1         0.1008
      20    H14     17.745113   17.975486   23.972908 H          1 MOL1         0.1008
@<TRIPOS>BOND
    1     1     2    1
    2     1     3    1
    3     1     4    1
    4     1     5    1
    5     5     6    1
    6     5     7    1
    7     5     8    1
    8     8     9    1
    9     8    10    1
   10     8    11    1
   11    11    12    1
   12    11    13    1
   13    11    14    1
   14    14    15    1
   15    14    16    1
   16    14    17    1
   17    17    18    1
   18    17    19    1
   19    17    20    1
@<TRIPOS>SUBSTRUCTURE
       1 MOL1            1 RESIDUE      1      MOL     
@<SCITEGIC>MOL_PROPERTY
VConf Rank
SciTegic.value.IntegerValue
579

@<SCITEGIC>MOL_PROPERTY
Conf_Id
SciTegic.value.IntegerValue
41

@<SCITEGIC>MOL_PROPERTY
Delta U+W
SciTegic.value.DoubleValue
0.515

@<SCITEGIC>MOL_PROPERTY
U+W
SciTegic.value.DoubleValue
-11.263

@<SCITEGIC>MOL_PROPERTY
Grad RMS
SciTegic.value.DoubleValue
0.000000

@<SCITEGIC>MOL_PROPERTY
U
SciTegic.value.DoubleValue
46.486

@<SCITEGIC>MOL_PROPERTY
W
SciTegic.value.DoubleValue
-57.749

@<SCITEGIC>MOL_PROPERTY
W(PB)
SciTegic.value.DoubleValue
-59.685

@<SCITEGIC>MOL_PROPERTY
W(SA)
SciTegic.value.DoubleValue
1.936

@<SCITEGIC>MOL_PROPERTY
Valence
SciTegic.value.DoubleValue
1.806

@<SCITEGIC>MOL_PROPERTY
Coulomb
SciTegic.value.DoubleValue
44.248

@<SCITEGIC>MOL_PROPERTY
VdW
SciTegic.value.DoubleValue
0.433

@<SCITEGIC>MOL_PROPERTY
VdW6
SciTegic.value.DoubleValue
-4.089

@<SCITEGIC>MOL_PROPERTY
VdW12
SciTegic.value.DoubleValue
4.522

@<SCITEGIC>MOL_PROPERTY
Bond
SciTegic.value.DoubleValue
0.131

@<SCITEGIC>MOL_PROPERTY
Angle
SciTegic.value.DoubleValue
0.628

@<SCITEGIC>MOL_PROPERTY
Pdih
SciTegic.value.DoubleValue
1.047

@<SCITEGIC>MOL_PROPERTY
Idih
SciTegic.value.DoubleValue
0.000

@<SCITEGIC>MOL_PROPERTY
Tether
SciTegic.value.DoubleValue
0.000

@<TRIPOS>MOLECULE
guest-s11_confgen4.mol2 : confsearch ligand conformer 580
          20          19           1
SMALL
USER_CHARGES
 
@<TRIPOS>ATOM
       1    N1      21.365863   21.610468   22.462803 N.4        1 MOL1        -0.5919
       2    H1      22.125306   22.242856   22.189247 H          1 MOL1         0.3682
       3    H2      20.616555   21.729450   21.774821 H          1 MOL1         0.3682
       4    H3      21.007664   21.946944   23.362065 H          1 MOL1         0.3682
       5    C1      21.834747   20.170462   22.544620 C.3        1 MOL1         0.0252
       6    H4      22.659068   20.131669   23.261968 H          1 MOL1         0.0971
       7    H5      22.224011   19.883342   21.564071 H          1 MOL1         0.0971
       8    C2      20.736329   19.179355   22.977119 C.3        1 MOL1        -0.1369
       9    H6      21.203699   18.196937   23.118636 H          1 MOL1         0.0997
      10    H7      20.335292   19.480265   23.954007 H          1 MOL1         0.0997
      11    C3      19.588444   19.069002   21.942082 C.3        1 MOL1        -0.1329
      12    H8      19.993915   18.745575   20.973343 H          1 MOL1         0.0997
      13    H9      19.148479   20.061365   21.776997 H          1 MOL1         0.0997
      14    C4      18.457219   18.105341   22.376441 C.3        1 MOL1        -0.1305
      15    H10     18.038946   18.432517   23.338661 H          1 MOL1         0.0997
      16    H11     17.637804   18.172979   21.647108 H          1 MOL1         0.0997
      17    C5      18.909110   16.630617   22.480114 C.3        1 MOL1        -0.2320
      18    H12     19.640614   16.487604   23.284923 H          1 MOL1         0.1008
      19    H13     18.051337   15.980644   22.696237 H          1 MOL1         0.1008
      20    H14     19.360128   16.288355   21.539666 H          1 MOL1         0.1008
@<TRIPOS>BOND
    1     1     2    1
    2     1     3    1
    3     1     4    1
    4     1     5    1
    5     5     6    1
    6     5     7    1
    7     5     8    1
    8     8     9    1
    9     8    10    1
   10     8    11    1
   11    11    12    1
   12    11    13    1
   13    11    14    1
   14    14    15    1
   15    14    16    1
   16    14    17    1
   17    17    18    1
   18    17    19    1
   19    17    20    1
@<TRIPOS>SUBSTRUCTURE
       1 MOL1            1 RESIDUE      1      MOL     
@<SCITEGIC>MOL_PROPERTY
VConf Rank
SciTegic.value.IntegerValue
580

@<SCITEGIC>MOL_PROPERTY
Conf_Id
SciTegic.value.IntegerValue
33

@<SCITEGIC>MOL_PROPERTY
Delta U+W
SciTegic.value.DoubleValue
0.703

@<SCITEGIC>MOL_PROPERTY
U+W
SciTegic.value.DoubleValue
-11.075

@<SCITEGIC>MOL_PROPERTY
Grad RMS
SciTegic.value.DoubleValue
0.000000

@<SCITEGIC>MOL_PROPERTY
U
SciTegic.value.DoubleValue
47.080

@<SCITEGIC>MOL_PROPERTY
W
SciTegic.value.DoubleValue
-58.154

@<SCITEGIC>MOL_PROPERTY
W(PB)
SciTegic.value.DoubleValue
-60.053

@<SCITEGIC>MOL_PROPERTY
W(SA)
SciTegic.value.DoubleValue
1.899

@<SCITEGIC>MOL_PROPERTY
Valence
SciTegic.value.DoubleValue
1.943

@<SCITEGIC>MOL_PROPERTY
Coulomb
SciTegic.value.DoubleValue
44.572

@<SCITEGIC>MOL_PROPERTY
VdW
SciTegic.value.DoubleValue
0.565

@<SCITEGIC>MOL_PROPERTY
VdW6
SciTegic.value.DoubleValue
-4.575

@<SCITEGIC>MOL_PROPERTY
VdW12
SciTegic.value.DoubleValue
5.139

@<SCITEGIC>MOL_PROPERTY
Bond
SciTegic.value.DoubleValue
0.158

@<SCITEGIC>MOL_PROPERTY
Angle
SciTegic.value.DoubleValue
0.700

@<SCITEGIC>MOL_PROPERTY
Pdih
SciTegic.value.DoubleValue
1.085

@<SCITEGIC>MOL_PROPERTY
Idih
SciTegic.value.DoubleValue
0.000

@<SCITEGIC>MOL_PROPERTY
Tether
SciTegic.value.DoubleValue
0.000

@<TRIPOS>MOLECULE
guest-s11_confgen4.mol2 : confsearch ligand conformer 581
          20          19           1
SMALL
USER_CHARGES
 
@<TRIPOS>ATOM
       1    N1      19.612731   17.620779   20.204317 N.4        1 MOL1        -0.5919
       2    H1      19.044469   16.943365   19.685002 H          1 MOL1         0.3682
       3    H2      20.040337   18.243539   19.511846 H          1 MOL1         0.3682
       4    H3      20.371464   17.095178   20.648171 H          1 MOL1         0.3682
       5    C1      18.786705   18.387148   21.219462 C.3        1 MOL1         0.0252
       6    H4      18.342385   17.665760   21.910564 H          1 MOL1         0.0971
       7    H5      17.976066   18.883338   20.678850 H          1 MOL1         0.0971
       8    C2      19.588593   19.438384   22.011763 C.3        1 MOL1        -0.1369
       9    H6      20.047854   20.151143   21.314093 H          1 MOL1         0.0997
      10    H7      18.882069   20.010740   22.625637 H          1 MOL1         0.0997
      11    C3      20.675137   18.804950   22.916916 C.3        1 MOL1        -0.1329
      12    H8      21.358016   18.203767   22.302209 H          1 MOL1         0.0997
      13    H9      20.205742   18.110166   23.627136 H          1 MOL1         0.0997
      14    C4      21.515618   19.847937   23.693281 C.3        1 MOL1        -0.1305
      15    H10     22.329101   19.325672   24.216183 H          1 MOL1         0.0997
      16    H11     21.998371   20.537211   22.986374 H          1 MOL1         0.0997
      17    C5      20.696716   20.653195   24.728039 C.3        1 MOL1        -0.2320
      18    H12     20.178215   19.985239   25.428038 H          1 MOL1         0.1008
      19    H13     21.355637   21.306621   25.314388 H          1 MOL1         0.1008
      20    H14     19.948226   21.291601   24.242784 H          1 MOL1         0.1008
@<TRIPOS>BOND
    1     1     2    1
    2     1     3    1
    3     1     4    1
    4     1     5    1
    5     5     6    1
    6     5     7    1
    7     5     8    1
    8     8     9    1
    9     8    10    1
   10     8    11    1
   11    11    12    1
   12    11    13    1
   13    11    14    1
   14    14    15    1
   15    14    16    1
   16    14    17    1
   17    17    18    1
   18    17    19    1
   19    17    20    1
@<TRIPOS>SUBSTRUCTURE
       1 MOL1            1 RESIDUE      1      MOL     
@<SCITEGIC>MOL_PROPERTY
VConf Rank
SciTegic.value.IntegerValue
581

@<SCITEGIC>MOL_PROPERTY
Conf_Id
SciTegic.value.IntegerValue
24

@<SCITEGIC>MOL_PROPERTY
Delta U+W
SciTegic.value.DoubleValue
0.847

@<SCITEGIC>MOL_PROPERTY
U+W
SciTegic.value.DoubleValue
-10.931

@<SCITEGIC>MOL_PROPERTY
Grad RMS
SciTegic.value.DoubleValue
0.000000

@<SCITEGIC>MOL_PROPERTY
U
SciTegic.value.DoubleValue
47.080

@<SCITEGIC>MOL_PROPERTY
W
SciTegic.value.DoubleValue
-58.011

@<SCITEGIC>MOL_PROPERTY
W(PB)
SciTegic.value.DoubleValue
-59.914

@<SCITEGIC>MOL_PROPERTY
W(SA)
SciTegic.value.DoubleValue
1.903

@<SCITEGIC>MOL_PROPERTY
Valence
SciTegic.value.DoubleValue
1.943

@<SCITEGIC>MOL_PROPERTY
Coulomb
SciTegic.value.DoubleValue
44.572

@<SCITEGIC>MOL_PROPERTY
VdW
SciTegic.value.DoubleValue
0.565

@<SCITEGIC>MOL_PROPERTY
VdW6
SciTegic.value.DoubleValue
-4.575

@<SCITEGIC>MOL_PROPERTY
VdW12
SciTegic.value.DoubleValue
5.140

@<SCITEGIC>MOL_PROPERTY
Bond
SciTegic.value.DoubleValue
0.158

@<SCITEGIC>MOL_PROPERTY
Angle
SciTegic.value.DoubleValue
0.700

@<SCITEGIC>MOL_PROPERTY
Pdih
SciTegic.value.DoubleValue
1.085

@<SCITEGIC>MOL_PROPERTY
Idih
SciTegic.value.DoubleValue
0.000

@<SCITEGIC>MOL_PROPERTY
Tether
SciTegic.value.DoubleValue
0.000

@<TRIPOS>MOLECULE
guest-s11_confgen4.mol2 : confsearch ligand conformer 582
          20          19           1
SMALL
USER_CHARGES
 
@<TRIPOS>ATOM
       1    N1      22.243218   17.716576   21.561300 N.4        1 MOL1        -0.5919
       2    H1      22.258194   16.705897   21.388689 H          1 MOL1         0.3682
       3    H2      22.197290   18.173991   20.645394 H          1 MOL1         0.3682
       4    H3      23.148625   17.960598   21.974822 H          1 MOL1         0.3682
       5    C1      21.086449   18.118382   22.453917 C.3        1 MOL1         0.0252
       6    H4      21.182393   17.574007   23.397224 H          1 MOL1         0.0971
       7    H5      20.160566   17.801710   21.966634 H          1 MOL1         0.0971
       8    C2      21.034577   19.632387   22.732705 C.3        1 MOL1        -0.1369
       9    H6      21.984959   19.947107   23.183798 H          1 MOL1         0.0997
      10    H7      20.947451   20.180254   21.785760 H          1 MOL1         0.0997
      11    C3      19.876043   20.027743   23.682172 C.3        1 MOL1        -0.1329
      12    H8      19.905209   21.113703   23.846800 H          1 MOL1         0.0997
      13    H9      20.048489   19.568594   24.665502 H          1 MOL1         0.0997
      14    C4      18.462729   19.628071   23.186158 C.3        1 MOL1        -0.1305
      15    H10     18.379951   18.534885   23.116372 H          1 MOL1         0.0997
      16    H11     17.726162   19.938062   23.940648 H          1 MOL1         0.0997
      17    C5      18.084355   20.265614   21.829920 C.3        1 MOL1        -0.2320
      18    H12     17.044787   20.027666   21.569956 H          1 MOL1         0.1008
      19    H13     18.179062   21.358598   21.867229 H          1 MOL1         0.1008
      20    H14     18.720773   19.892448   21.017913 H          1 MOL1         0.1008
@<TRIPOS>BOND
    1     1     2    1
    2     1     3    1
    3     1     4    1
    4     1     5    1
    5     5     6    1
    6     5     7    1
    7     5     8    1
    8     8     9    1
    9     8    10    1
   10     8    11    1
   11    11    12    1
   12    11    13    1
   13    11    14    1
   14    14    15    1
   15    14    16    1
   16    14    17    1
   17    17    18    1
   18    17    19    1
   19    17    20    1
@<TRIPOS>SUBSTRUCTURE
       1 MOL1            1 RESIDUE      1      MOL     
@<SCITEGIC>MOL_PROPERTY
VConf Rank
SciTegic.value.IntegerValue
582

@<SCITEGIC>MOL_PROPERTY
Conf_Id
SciTegic.value.IntegerValue
64

@<SCITEGIC>MOL_PROPERTY
Delta U+W
SciTegic.value.DoubleValue
0.707

@<SCITEGIC>MOL_PROPERTY
U+W
SciTegic.value.DoubleValue
-11.070

@<SCITEGIC>MOL_PROPERTY
Grad RMS
SciTegic.value.DoubleValue
0.000000

@<SCITEGIC>MOL_PROPERTY
U
SciTegic.value.DoubleValue
47.077

@<SCITEGIC>MOL_PROPERTY
W
SciTegic.value.DoubleValue
-58.148

@<SCITEGIC>MOL_PROPERTY
W(PB)
SciTegic.value.DoubleValue
-60.054

@<SCITEGIC>MOL_PROPERTY
W(SA)
SciTegic.value.DoubleValue
1.906

@<SCITEGIC>MOL_PROPERTY
Valence
SciTegic.value.DoubleValue
2.039

@<SCITEGIC>MOL_PROPERTY
Coulomb
SciTegic.value.DoubleValue
44.655

@<SCITEGIC>MOL_PROPERTY
VdW
SciTegic.value.DoubleValue
0.383

@<SCITEGIC>MOL_PROPERTY
VdW6
SciTegic.value.DoubleValue
-4.912

@<SCITEGIC>MOL_PROPERTY
VdW12
SciTegic.value.DoubleValue
5.295

@<SCITEGIC>MOL_PROPERTY
Bond
SciTegic.value.DoubleValue
0.159

@<SCITEGIC>MOL_PROPERTY
Angle
SciTegic.value.DoubleValue
0.856

@<SCITEGIC>MOL_PROPERTY
Pdih
SciTegic.value.DoubleValue
1.024

@<SCITEGIC>MOL_PROPERTY
Idih
SciTegic.value.DoubleValue
0.000

@<SCITEGIC>MOL_PROPERTY
Tether
SciTegic.value.DoubleValue
0.000

@<TRIPOS>MOLECULE
guest-s11_confgen4.mol2 : confsearch ligand conformer 583
          20          19           1
SMALL
USER_CHARGES
 
@<TRIPOS>ATOM
       1    N1      18.747678   21.248664   21.684665 N.4        1 MOL1        -0.5919
       2    H1      19.012113   21.616980   20.765575 H          1 MOL1         0.3682
       3    H2      17.909685   20.674486   21.549350 H          1 MOL1         0.3682
       4    H3      18.468561   22.052024   22.257548 H          1 MOL1         0.3682
       5    C1      19.874565   20.464152   22.325751 C.3        1 MOL1         0.0252
       6    H4      19.534013   20.130140   23.309339 H          1 MOL1         0.0971
       7    H5      20.720892   21.141861   22.466539 H          1 MOL1         0.0971
       8    C2      20.317888   19.248744   21.489768 C.3        1 MOL1        -0.1369
       9    H6      19.466742   18.572283   21.340078 H          1 MOL1         0.0997
      10    H7      20.618400   19.590719   20.490516 H          1 MOL1         0.0997
      11    C3      21.499936   18.479323   22.130667 C.3        1 MOL1        -0.1329
      12    H8      22.380509   19.136131   22.156898 H          1 MOL1         0.0997
      13    H9      21.771165   17.636652   21.479820 H          1 MOL1         0.0997
      14    C4      21.231211   17.948162   23.562057 C.3        1 MOL1        -0.1305
      15    H10     22.136370   17.439611   23.922535 H          1 MOL1         0.0997
      16    H11     21.061790   18.785845   24.252245 H          1 MOL1         0.0997
      17    C5      20.042798   16.962880   23.638891 C.3        1 MOL1        -0.2320
      18    H12     20.178293   16.125597   22.942060 H          1 MOL1         0.1008
      19    H13     19.953572   16.546296   24.650524 H          1 MOL1         0.1008
      20    H14     19.093033   17.458083   23.401494 H          1 MOL1         0.1008
@<TRIPOS>BOND
    1     1     2    1
    2     1     3    1
    3     1     4    1
    4     1     5    1
    5     5     6    1
    6     5     7    1
    7     5     8    1
    8     8     9    1
    9     8    10    1
   10     8    11    1
   11    11    12    1
   12    11    13    1
   13    11    14    1
   14    14    15    1
   15    14    16    1
   16    14    17    1
   17    17    18    1
   18    17    19    1
   19    17    20    1
@<TRIPOS>SUBSTRUCTURE
       1 MOL1            1 RESIDUE      1      MOL     
@<SCITEGIC>MOL_PROPERTY
VConf Rank
SciTegic.value.IntegerValue
583

@<SCITEGIC>MOL_PROPERTY
Conf_Id
SciTegic.value.IntegerValue
22

@<SCITEGIC>MOL_PROPERTY
Delta U+W
SciTegic.value.DoubleValue
0.731

@<SCITEGIC>MOL_PROPERTY
U+W
SciTegic.value.DoubleValue
-11.047

@<SCITEGIC>MOL_PROPERTY
Grad RMS
SciTegic.value.DoubleValue
0.000000

@<SCITEGIC>MOL_PROPERTY
U
SciTegic.value.DoubleValue
47.078

@<SCITEGIC>MOL_PROPERTY
W
SciTegic.value.DoubleValue
-58.125

@<SCITEGIC>MOL_PROPERTY
W(PB)
SciTegic.value.DoubleValue
-60.031

@<SCITEGIC>MOL_PROPERTY
W(SA)
SciTegic.value.DoubleValue
1.906

@<SCITEGIC>MOL_PROPERTY
Valence
SciTegic.value.DoubleValue
2.039

@<SCITEGIC>MOL_PROPERTY
Coulomb
SciTegic.value.DoubleValue
44.655

@<SCITEGIC>MOL_PROPERTY
VdW
SciTegic.value.DoubleValue
0.383

@<SCITEGIC>MOL_PROPERTY
VdW6
SciTegic.value.DoubleValue
-4.913

@<SCITEGIC>MOL_PROPERTY
VdW12
SciTegic.value.DoubleValue
5.296

@<SCITEGIC>MOL_PROPERTY
Bond
SciTegic.value.DoubleValue
0.159

@<SCITEGIC>MOL_PROPERTY
Angle
SciTegic.value.DoubleValue
0.856

@<SCITEGIC>MOL_PROPERTY
Pdih
SciTegic.value.DoubleValue
1.024

@<SCITEGIC>MOL_PROPERTY
Idih
SciTegic.value.DoubleValue
0.000

@<SCITEGIC>MOL_PROPERTY
Tether
SciTegic.value.DoubleValue
0.000

@<TRIPOS>MOLECULE
guest-s11_confgen4.mol2 : confsearch ligand conformer 584
          20          19           1
SMALL
USER_CHARGES
 
@<TRIPOS>ATOM
       1    N1      18.892927   21.616327   22.168446 N.4        1 MOL1        -0.5919
       2    H1      18.277448   21.423087   21.372093 H          1 MOL1         0.3682
       3    H2      18.291498   21.861083   22.961344 H          1 MOL1         0.3682
       4    H3      19.429823   22.457399   21.932151 H          1 MOL1         0.3682
       5    C1      19.796361   20.441309   22.484280 C.3        1 MOL1         0.0252
       6    H4      20.440623   20.725095   23.320813 H          1 MOL1         0.0971
       7    H5      20.423332   20.260317   21.608257 H          1 MOL1         0.0971
       8    C2      19.020034   19.160335   22.837966 C.3        1 MOL1        -0.1369
       9    H6      18.307590   19.389836   23.641506 H          1 MOL1         0.0997
      10    H7      18.420949   18.845453   21.973250 H          1 MOL1         0.0997
      11    C3      19.920902   17.987513   23.301470 C.3        1 MOL1        -0.1329
      12    H8      19.259642   17.166577   23.611873 H          1 MOL1         0.0997
      13    H9      20.481498   18.273415   24.202215 H          1 MOL1         0.0997
      14    C4      20.888396   17.440191   22.219997 C.3        1 MOL1        -0.1305
      15    H10     21.079977   16.379255   22.434040 H          1 MOL1         0.0997
      16    H11     20.409328   17.466418   21.231287 H          1 MOL1         0.0997
      17    C5      22.253279   18.166715   22.174236 C.3        1 MOL1        -0.2320
      18    H12     22.156227   19.215689   21.875726 H          1 MOL1         0.1008
      19    H13     22.748994   18.135459   23.153161 H          1 MOL1         0.1008
      20    H14     22.919781   17.681140   21.449685 H          1 MOL1         0.1008
@<TRIPOS>BOND
    1     1     2    1
    2     1     3    1
    3     1     4    1
    4     1     5    1
    5     5     6    1
    6     5     7    1
    7     5     8    1
    8     8     9    1
    9     8    10    1
   10     8    11    1
   11    11    12    1
   12    11    13    1
   13    11    14    1
   14    14    15    1
   15    14    16    1
   16    14    17    1
   17    17    18    1
   18    17    19    1
   19    17    20    1
@<TRIPOS>SUBSTRUCTURE
       1 MOL1            1 RESIDUE      1      MOL     
@<SCITEGIC>MOL_PROPERTY
VConf Rank
SciTegic.value.IntegerValue
584

@<SCITEGIC>MOL_PROPERTY
Conf_Id
SciTegic.value.IntegerValue
61

@<SCITEGIC>MOL_PROPERTY
Delta U+W
SciTegic.value.DoubleValue
2.669

@<SCITEGIC>MOL_PROPERTY
U+W
SciTegic.value.DoubleValue
-9.108

@<SCITEGIC>MOL_PROPERTY
Grad RMS
SciTegic.value.DoubleValue
0.000000

@<SCITEGIC>MOL_PROPERTY
U
SciTegic.value.DoubleValue
48.916

@<SCITEGIC>MOL_PROPERTY
W
SciTegic.value.DoubleValue
-58.025

@<SCITEGIC>MOL_PROPERTY
W(PB)
SciTegic.value.DoubleValue
-59.935

@<SCITEGIC>MOL_PROPERTY
W(SA)
SciTegic.value.DoubleValue
1.911

@<SCITEGIC>MOL_PROPERTY
Valence
SciTegic.value.DoubleValue
3.785

@<SCITEGIC>MOL_PROPERTY
Coulomb
SciTegic.value.DoubleValue
44.716

@<SCITEGIC>MOL_PROPERTY
VdW
SciTegic.value.DoubleValue
0.415

@<SCITEGIC>MOL_PROPERTY
VdW6
SciTegic.value.DoubleValue
-4.836

@<SCITEGIC>MOL_PROPERTY
VdW12
SciTegic.value.DoubleValue
5.251

@<SCITEGIC>MOL_PROPERTY
Bond
SciTegic.value.DoubleValue
0.175

@<SCITEGIC>MOL_PROPERTY
Angle
SciTegic.value.DoubleValue
1.195

@<SCITEGIC>MOL_PROPERTY
Pdih
SciTegic.value.DoubleValue
2.415

@<SCITEGIC>MOL_PROPERTY
Idih
SciTegic.value.DoubleValue
0.000

@<SCITEGIC>MOL_PROPERTY
Tether
SciTegic.value.DoubleValue
0.000

@<TRIPOS>MOLECULE
guest-s11_confgen4.mol2 : confsearch ligand conformer 585
          20          19           1
SMALL
USER_CHARGES
 
@<TRIPOS>ATOM
       1    N1      18.711569   20.211555   23.797721 N.4        1 MOL1        -0.5919
       2    H1      18.654012   20.893597   24.561361 H          1 MOL1         0.3682
       3    H2      17.758316   19.875953   23.627476 H          1 MOL1         0.3682
       4    H3      19.254155   19.416583   24.145063 H          1 MOL1         0.3682
       5    C1      19.326411   20.816039   22.549867 C.3        1 MOL1         0.0252
       6    H4      20.315186   21.207931   22.803009 H          1 MOL1         0.0971
       7    H5      18.693182   21.658884   22.259707 H          1 MOL1         0.0971
       8    C2      19.438421   19.840781   21.359153 C.3        1 MOL1        -0.1369
       9    H6      18.520105   19.244913   21.272820 H          1 MOL1         0.0997
      10    H7      19.495023   20.440503   20.441003 H          1 MOL1         0.0997
      11    C3      20.681630   18.915227   21.398539 C.3        1 MOL1        -0.1329
      12    H8      21.593428   19.527877   21.425935 H          1 MOL1         0.0997
      13    H9      20.719522   18.353718   20.454743 H          1 MOL1         0.0997
      14    C4      20.698115   17.913060   22.576546 C.3        1 MOL1        -0.1305
      15    H10     20.812667   18.450678   23.526123 H          1 MOL1         0.0997
      16    H11     19.742890   17.371195   22.619791 H          1 MOL1         0.0997
      17    C5      21.854180   16.898719   22.443717 C.3        1 MOL1        -0.2320
      18    H12     21.857734   16.201449   23.291570 H          1 MOL1         0.1008
      19    H13     21.758475   16.307874   21.523410 H          1 MOL1         0.1008
      20    H14     22.826276   17.408494   22.422996 H          1 MOL1         0.1008
@<TRIPOS>BOND
    1     1     2    1
    2     1     3    1
    3     1     4    1
    4     1     5    1
    5     5     6    1
    6     5     7    1
    7     5     8    1
    8     8     9    1
    9     8    10    1
   10     8    11    1
   11    11    12    1
   12    11    13    1
   13    11    14    1
   14    14    15    1
   15    14    16    1
   16    14    17    1
   17    17    18    1
   18    17    19    1
   19    17    20    1
@<TRIPOS>SUBSTRUCTURE
       1 MOL1            1 RESIDUE      1      MOL     
@<SCITEGIC>MOL_PROPERTY
VConf Rank
SciTegic.value.IntegerValue
585

@<SCITEGIC>MOL_PROPERTY
Conf_Id
SciTegic.value.IntegerValue
69

@<SCITEGIC>MOL_PROPERTY
Delta U+W
SciTegic.value.DoubleValue
2.811

@<SCITEGIC>MOL_PROPERTY
U+W
SciTegic.value.DoubleValue
-8.967

@<SCITEGIC>MOL_PROPERTY
Grad RMS
SciTegic.value.DoubleValue
0.000000

@<SCITEGIC>MOL_PROPERTY
U
SciTegic.value.DoubleValue
49.216

@<SCITEGIC>MOL_PROPERTY
W
SciTegic.value.DoubleValue
-58.183

@<SCITEGIC>MOL_PROPERTY
W(PB)
SciTegic.value.DoubleValue
-60.064

@<SCITEGIC>MOL_PROPERTY
W(SA)
SciTegic.value.DoubleValue
1.881

@<SCITEGIC>MOL_PROPERTY
Valence
SciTegic.value.DoubleValue
2.929

@<SCITEGIC>MOL_PROPERTY
Coulomb
SciTegic.value.DoubleValue
46.006

@<SCITEGIC>MOL_PROPERTY
VdW
SciTegic.value.DoubleValue
0.281

@<SCITEGIC>MOL_PROPERTY
VdW6
SciTegic.value.DoubleValue
-4.909

@<SCITEGIC>MOL_PROPERTY
VdW12
SciTegic.value.DoubleValue
5.190

@<SCITEGIC>MOL_PROPERTY
Bond
SciTegic.value.DoubleValue
0.156

@<SCITEGIC>MOL_PROPERTY
Angle
SciTegic.value.DoubleValue
0.974

@<SCITEGIC>MOL_PROPERTY
Pdih
SciTegic.value.DoubleValue
1.799

@<SCITEGIC>MOL_PROPERTY
Idih
SciTegic.value.DoubleValue
0.000

@<SCITEGIC>MOL_PROPERTY
Tether
SciTegic.value.DoubleValue
0.000

@<TRIPOS>MOLECULE
guest-s11_confgen4.mol2 : confsearch ligand conformer 586
          20          19           1
SMALL
USER_CHARGES
 
@<TRIPOS>ATOM
       1    N1      21.171812   18.140607   20.687541 N.4        1 MOL1        -0.5919
       2    H1      21.557129   18.973572   21.140010 H          1 MOL1         0.3682
       3    H2      21.677624   17.331674   21.061820 H          1 MOL1         0.3682
       4    H3      21.407293   18.202793   19.691386 H          1 MOL1         0.3682
       5    C1      19.675644   18.018132   20.904451 C.3        1 MOL1         0.0252
       6    H4      19.351249   17.115110   20.380164 H          1 MOL1         0.0971
       7    H5      19.184099   18.875313   20.436515 H          1 MOL1         0.0971
       8    C2      19.253578   17.916185   22.385310 C.3        1 MOL1        -0.1369
       9    H6      18.266331   17.436482   22.418481 H          1 MOL1         0.0997
      10    H7      19.933032   17.243226   22.925017 H          1 MOL1         0.0997
      11    C3      19.144540   19.277187   23.119855 C.3        1 MOL1        -0.1329
      12    H8      18.728834   19.093115   24.120247 H          1 MOL1         0.0997
      13    H9      18.417421   19.916461   22.600151 H          1 MOL1         0.0997
      14    C4      20.484551   20.035308   23.267954 C.3        1 MOL1        -0.1305
      15    H10     21.247985   19.366314   23.689331 H          1 MOL1         0.0997
      16    H11     20.842780   20.361734   22.283591 H          1 MOL1         0.0997
      17    C5      20.338188   21.276617   24.173906 C.3        1 MOL1        -0.2320
      18    H12     20.018496   20.993043   25.185145 H          1 MOL1         0.1008
      19    H13     21.294633   21.808322   24.260825 H          1 MOL1         0.1008
      20    H14     19.598855   21.978190   23.765920 H          1 MOL1         0.1008
@<TRIPOS>BOND
    1     1     2    1
    2     1     3    1
    3     1     4    1
    4     1     5    1
    5     5     6    1
    6     5     7    1
    7     5     8    1
    8     8     9    1
    9     8    10    1
   10     8    11    1
   11    11    12    1
   12    11    13    1
   13    11    14    1
   14    14    15    1
   15    14    16    1
   16    14    17    1
   17    17    18    1
   18    17    19    1
   19    17    20    1
@<TRIPOS>SUBSTRUCTURE
       1 MOL1            1 RESIDUE      1      MOL     
@<SCITEGIC>MOL_PROPERTY
VConf Rank
SciTegic.value.IntegerValue
586

@<SCITEGIC>MOL_PROPERTY
Conf_Id
SciTegic.value.IntegerValue
26

@<SCITEGIC>MOL_PROPERTY
Delta U+W
SciTegic.value.DoubleValue
2.809

@<SCITEGIC>MOL_PROPERTY
U+W
SciTegic.value.DoubleValue
-8.969

@<SCITEGIC>MOL_PROPERTY
Grad RMS
SciTegic.value.DoubleValue
0.000000

@<SCITEGIC>MOL_PROPERTY
U
SciTegic.value.DoubleValue
49.216

@<SCITEGIC>MOL_PROPERTY
W
SciTegic.value.DoubleValue
-58.185

@<SCITEGIC>MOL_PROPERTY
W(PB)
SciTegic.value.DoubleValue
-60.088

@<SCITEGIC>MOL_PROPERTY
W(SA)
SciTegic.value.DoubleValue
1.903

@<SCITEGIC>MOL_PROPERTY
Valence
SciTegic.value.DoubleValue
2.929

@<SCITEGIC>MOL_PROPERTY
Coulomb
SciTegic.value.DoubleValue
46.006

@<SCITEGIC>MOL_PROPERTY
VdW
SciTegic.value.DoubleValue
0.281

@<SCITEGIC>MOL_PROPERTY
VdW6
SciTegic.value.DoubleValue
-4.909

@<SCITEGIC>MOL_PROPERTY
VdW12
SciTegic.value.DoubleValue
5.190

@<SCITEGIC>MOL_PROPERTY
Bond
SciTegic.value.DoubleValue
0.156

@<SCITEGIC>MOL_PROPERTY
Angle
SciTegic.value.DoubleValue
0.974

@<SCITEGIC>MOL_PROPERTY
Pdih
SciTegic.value.DoubleValue
1.799

@<SCITEGIC>MOL_PROPERTY
Idih
SciTegic.value.DoubleValue
0.000

@<SCITEGIC>MOL_PROPERTY
Tether
SciTegic.value.DoubleValue
0.000

@<TRIPOS>MOLECULE
guest-s11_confgen4.mol2 : confsearch ligand conformer 587
          20          19           1
SMALL
USER_CHARGES
 
@<TRIPOS>ATOM
       1    N1      22.122852   18.708485   21.171873 N.4        1 MOL1        -0.5919
       2    H1      22.385719   18.656892   22.160396 H          1 MOL1         0.3682
       3    H2      22.219714   17.765308   20.783190 H          1 MOL1         0.3682
       4    H3      22.821182   19.296684   20.705325 H          1 MOL1         0.3682
       5    C1      20.718304   19.250725   20.992374 C.3        1 MOL1         0.0252
       6    H4      20.517838   19.307348   19.919008 H          1 MOL1         0.0971
       7    H5      20.691776   20.266210   21.396128 H          1 MOL1         0.0971
       8    C2      19.631431   18.392841   21.671370 C.3        1 MOL1        -0.1369
       9    H6      18.646685   18.811865   21.428007 H          1 MOL1         0.0997
      10    H7      19.644198   17.385404   21.234856 H          1 MOL1         0.0997
      11    C3      19.784832   18.283878   23.211367 C.3        1 MOL1        -0.1329
      12    H8      20.695866   17.717445   23.446693 H          1 MOL1         0.0997
      13    H9      18.952859   17.685811   23.608024 H          1 MOL1         0.0997
      14    C4      19.830923   19.641631   23.957967 C.3        1 MOL1        -0.1305
      15    H10     19.962501   19.447127   25.031609 H          1 MOL1         0.0997
      16    H11     20.712518   20.217694   23.645816 H          1 MOL1         0.0997
      17    C5      18.557063   20.494051   23.759210 C.3        1 MOL1        -0.2320
      18    H12     17.658303   19.934301   24.048819 H          1 MOL1         0.1008
      19    H13     18.600939   21.400748   24.376349 H          1 MOL1         0.1008
      20    H14     18.443366   20.810947   22.715059 H          1 MOL1         0.1008
@<TRIPOS>BOND
    1     1     2    1
    2     1     3    1
    3     1     4    1
    4     1     5    1
    5     5     6    1
    6     5     7    1
    7     5     8    1
    8     8     9    1
    9     8    10    1
   10     8    11    1
   11    11    12    1
   12    11    13    1
   13    11    14    1
   14    14    15    1
   15    14    16    1
   16    14    17    1
   17    17    18    1
   18    17    19    1
   19    17    20    1
@<TRIPOS>SUBSTRUCTURE
       1 MOL1            1 RESIDUE      1      MOL     
@<SCITEGIC>MOL_PROPERTY
VConf Rank
SciTegic.value.IntegerValue
587

@<SCITEGIC>MOL_PROPERTY
Conf_Id
SciTegic.value.IntegerValue
2

@<SCITEGIC>MOL_PROPERTY
Delta U+W
SciTegic.value.DoubleValue
0.994

@<SCITEGIC>MOL_PROPERTY
U+W
SciTegic.value.DoubleValue
-10.784

@<SCITEGIC>MOL_PROPERTY
Grad RMS
SciTegic.value.DoubleValue
0.000000

@<SCITEGIC>MOL_PROPERTY
U
SciTegic.value.DoubleValue
47.562

@<SCITEGIC>MOL_PROPERTY
W
SciTegic.value.DoubleValue
-58.346

@<SCITEGIC>MOL_PROPERTY
W(PB)
SciTegic.value.DoubleValue
-60.221

@<SCITEGIC>MOL_PROPERTY
W(SA)
SciTegic.value.DoubleValue
1.875

@<SCITEGIC>MOL_PROPERTY
Valence
SciTegic.value.DoubleValue
2.149

@<SCITEGIC>MOL_PROPERTY
Coulomb
SciTegic.value.DoubleValue
45.034

@<SCITEGIC>MOL_PROPERTY
VdW
SciTegic.value.DoubleValue
0.378

@<SCITEGIC>MOL_PROPERTY
VdW6
SciTegic.value.DoubleValue
-5.599

@<SCITEGIC>MOL_PROPERTY
VdW12
SciTegic.value.DoubleValue
5.977

@<SCITEGIC>MOL_PROPERTY
Bond
SciTegic.value.DoubleValue
0.185

@<SCITEGIC>MOL_PROPERTY
Angle
SciTegic.value.DoubleValue
0.935

@<SCITEGIC>MOL_PROPERTY
Pdih
SciTegic.value.DoubleValue
1.028

@<SCITEGIC>MOL_PROPERTY
Idih
SciTegic.value.DoubleValue
0.000

@<SCITEGIC>MOL_PROPERTY
Tether
SciTegic.value.DoubleValue
0.000

@<TRIPOS>MOLECULE
guest-s11_confgen4.mol2 : confsearch ligand conformer 588
          20          19           1
SMALL
USER_CHARGES
 
@<TRIPOS>ATOM
       1    N1      20.455828   19.575239   20.111343 N.4        1 MOL1        -0.5919
       2    H1      21.206158   19.083095   19.616534 H          1 MOL1         0.3682
       3    H2      19.668179   18.925350   20.190042 H          1 MOL1         0.3682
       4    H3      20.152078   20.343760   19.504366 H          1 MOL1         0.3682
       5    C1      20.909006   20.074640   21.469365 C.3        1 MOL1         0.0252
       6    H4      20.077022   20.615753   21.927550 H          1 MOL1         0.0971
       7    H5      21.726202   20.782924   21.308019 H          1 MOL1         0.0971
       8    C2      21.383353   18.952911   22.415413 C.3        1 MOL1        -0.1369
       9    H6      22.240211   18.438150   21.961042 H          1 MOL1         0.0997
      10    H7      21.762820   19.406685   23.339873 H          1 MOL1         0.0997
      11    C3      20.285774   17.911598   22.758895 C.3        1 MOL1        -0.1329
      12    H8      20.703642   17.175641   23.459575 H          1 MOL1         0.0997
      13    H9      20.025942   17.345579   21.854287 H          1 MOL1         0.0997
      14    C4      18.990734   18.508341   23.367012 C.3        1 MOL1        -0.1305
      15    H10     18.503057   19.175551   22.643481 H          1 MOL1         0.0997
      16    H11     18.279820   17.690347   23.549592 H          1 MOL1         0.0997
      17    C5      19.228697   19.265979   24.692983 C.3        1 MOL1        -0.2320
      18    H12     19.843512   20.161689   24.540312 H          1 MOL1         0.1008
      19    H13     18.274197   19.590900   25.126852 H          1 MOL1         0.1008
      20    H14     19.730979   18.625141   25.429190 H          1 MOL1         0.1008
@<TRIPOS>BOND
    1     1     2    1
    2     1     3    1
    3     1     4    1
    4     1     5    1
    5     5     6    1
    6     5     7    1
    7     5     8    1
    8     8     9    1
    9     8    10    1
   10     8    11    1
   11    11    12    1
   12    11    13    1
   13    11    14    1
   14    14    15    1
   15    14    16    1
   16    14    17    1
   17    17    18    1
   18    17    19    1
   19    17    20    1
@<TRIPOS>SUBSTRUCTURE
       1 MOL1            1 RESIDUE      1      MOL     
@<SCITEGIC>MOL_PROPERTY
VConf Rank
SciTegic.value.IntegerValue
588

@<SCITEGIC>MOL_PROPERTY
Conf_Id
SciTegic.value.IntegerValue
1

@<SCITEGIC>MOL_PROPERTY
Delta U+W
SciTegic.value.DoubleValue
1.032

@<SCITEGIC>MOL_PROPERTY
U+W
SciTegic.value.DoubleValue
-10.746

@<SCITEGIC>MOL_PROPERTY
Grad RMS
SciTegic.value.DoubleValue
0.000000

@<SCITEGIC>MOL_PROPERTY
U
SciTegic.value.DoubleValue
47.562

@<SCITEGIC>MOL_PROPERTY
W
SciTegic.value.DoubleValue
-58.308

@<SCITEGIC>MOL_PROPERTY
W(PB)
SciTegic.value.DoubleValue
-60.184

@<SCITEGIC>MOL_PROPERTY
W(SA)
SciTegic.value.DoubleValue
1.877

@<SCITEGIC>MOL_PROPERTY
Valence
SciTegic.value.DoubleValue
2.149

@<SCITEGIC>MOL_PROPERTY
Coulomb
SciTegic.value.DoubleValue
45.035

@<SCITEGIC>MOL_PROPERTY
VdW
SciTegic.value.DoubleValue
0.378

@<SCITEGIC>MOL_PROPERTY
VdW6
SciTegic.value.DoubleValue
-5.599

@<SCITEGIC>MOL_PROPERTY
VdW12
SciTegic.value.DoubleValue
5.978

@<SCITEGIC>MOL_PROPERTY
Bond
SciTegic.value.DoubleValue
0.185

@<SCITEGIC>MOL_PROPERTY
Angle
SciTegic.value.DoubleValue
0.935

@<SCITEGIC>MOL_PROPERTY
Pdih
SciTegic.value.DoubleValue
1.028

@<SCITEGIC>MOL_PROPERTY
Idih
SciTegic.value.DoubleValue
0.000

@<SCITEGIC>MOL_PROPERTY
Tether
SciTegic.value.DoubleValue
0.000

@<TRIPOS>MOLECULE
guest-s11_confgen4.mol2 : confsearch ligand conformer 589
          20          19           1
SMALL
USER_CHARGES
 
@<TRIPOS>ATOM
       1    N1      18.829957   17.499609   23.412451 N.4        1 MOL1        -0.5919
       2    H1      18.734500   16.597230   22.936330 H          1 MOL1         0.3682
       3    H2      19.717349   17.480157   23.923177 H          1 MOL1         0.3682
       4    H3      18.082544   17.547596   24.112748 H          1 MOL1         0.3682
       5    C1      18.765093   18.660899   22.439335 C.3        1 MOL1         0.0252
       6    H4      18.841440   19.585448   23.013706 H          1 MOL1         0.0971
       7    H5      17.779087   18.639020   21.967278 H          1 MOL1         0.0971
       8    C2      19.851469   18.617716   21.343599 C.3        1 MOL1        -0.1369
       9    H6      19.746563   17.670903   20.797375 H          1 MOL1         0.0997
      10    H7      19.658893   19.410924   20.609192 H          1 MOL1         0.0997
      11    C3      21.308033   18.736078   21.867748 C.3        1 MOL1        -0.1329
      12    H8      21.973132   18.286793   21.117276 H          1 MOL1         0.0997
      13    H9      21.443260   18.133941   22.775420 H          1 MOL1         0.0997
      14    C4      21.801238   20.185087   22.115044 C.3        1 MOL1        -0.1305
      15    H10     22.864277   20.144533   22.391179 H          1 MOL1         0.0997
      16    H11     21.753845   20.757748   21.178243 H          1 MOL1         0.0997
      17    C5      21.036131   20.945114   23.220893 C.3        1 MOL1        -0.2320
      18    H12     20.965790   20.348669   24.139623 H          1 MOL1         0.1008
      19    H13     21.552906   21.881457   23.468143 H          1 MOL1         0.1008
      20    H14     20.023780   21.211840   22.895229 H          1 MOL1         0.1008
@<TRIPOS>BOND
    1     1     2    1
    2     1     3    1
    3     1     4    1
    4     1     5    1
    5     5     6    1
    6     5     7    1
    7     5     8    1
    8     8     9    1
    9     8    10    1
   10     8    11    1
   11    11    12    1
   12    11    13    1
   13    11    14    1
   14    14    15    1
   15    14    16    1
   16    14    17    1
   17    17    18    1
   18    17    19    1
   19    17    20    1
@<TRIPOS>SUBSTRUCTURE
       1 MOL1            1 RESIDUE      1      MOL     
@<SCITEGIC>MOL_PROPERTY
VConf Rank
SciTegic.value.IntegerValue
589

@<SCITEGIC>MOL_PROPERTY
Conf_Id
SciTegic.value.IntegerValue
80

@<SCITEGIC>MOL_PROPERTY
Delta U+W
SciTegic.value.DoubleValue
2.920

@<SCITEGIC>MOL_PROPERTY
U+W
SciTegic.value.DoubleValue
-8.857

@<SCITEGIC>MOL_PROPERTY
Grad RMS
SciTegic.value.DoubleValue
0.000000

@<SCITEGIC>MOL_PROPERTY
U
SciTegic.value.DoubleValue
49.434

@<SCITEGIC>MOL_PROPERTY
W
SciTegic.value.DoubleValue
-58.292

@<SCITEGIC>MOL_PROPERTY
W(PB)
SciTegic.value.DoubleValue
-60.170

@<SCITEGIC>MOL_PROPERTY
W(SA)
SciTegic.value.DoubleValue
1.879

@<SCITEGIC>MOL_PROPERTY
Valence
SciTegic.value.DoubleValue
3.798

@<SCITEGIC>MOL_PROPERTY
Coulomb
SciTegic.value.DoubleValue
45.253

@<SCITEGIC>MOL_PROPERTY
VdW
SciTegic.value.DoubleValue
0.384

@<SCITEGIC>MOL_PROPERTY
VdW6
SciTegic.value.DoubleValue
-5.595

@<SCITEGIC>MOL_PROPERTY
VdW12
SciTegic.value.DoubleValue
5.979

@<SCITEGIC>MOL_PROPERTY
Bond
SciTegic.value.DoubleValue
0.198

@<SCITEGIC>MOL_PROPERTY
Angle
SciTegic.value.DoubleValue
1.368

@<SCITEGIC>MOL_PROPERTY
Pdih
SciTegic.value.DoubleValue
2.231

@<SCITEGIC>MOL_PROPERTY
Idih
SciTegic.value.DoubleValue
0.000

@<SCITEGIC>MOL_PROPERTY
Tether
SciTegic.value.DoubleValue
0.000

@<TRIPOS>MOLECULE
guest-s11_confgen4.mol2 : confsearch ligand conformer 590
          20          19           1
SMALL
USER_CHARGES
 
@<TRIPOS>ATOM
       1    N1      21.489777   20.909707   21.558469 N.4        1 MOL1        -0.5919
       2    H1      21.691815   21.739033   22.125469 H          1 MOL1         0.3682
       3    H2      22.111684   20.946746   20.744094 H          1 MOL1         0.3682
       4    H3      20.532500   21.008131   21.208298 H          1 MOL1         0.3682
       5    C1      21.672022   19.627948   22.348176 C.3        1 MOL1         0.0252
       6    H4      22.721708   19.574407   22.649535 H          1 MOL1         0.0971
       7    H5      21.472072   18.789573   21.679100 H          1 MOL1         0.0971
       8    C2      20.779893   19.537390   23.604612 C.3        1 MOL1        -0.1369
       9    H6      21.061776   18.650633   24.187555 H          1 MOL1         0.0997
      10    H7      21.004376   20.401129   24.244442 H          1 MOL1         0.0997
      11    C3      19.254400   19.508349   23.317638 C.3        1 MOL1        -0.1329
      12    H8      18.994382   20.228485   22.531181 H          1 MOL1         0.0997
      13    H9      18.735646   19.860991   24.219836 H          1 MOL1         0.0997
      14    C4      18.678294   18.111822   22.968555 C.3        1 MOL1        -0.1305
      15    H10     18.857440   17.418057   23.801849 H          1 MOL1         0.0997
      16    H11     17.586556   18.202166   22.879718 H          1 MOL1         0.0997
      17    C5      19.227315   17.497739   21.661877 C.3        1 MOL1        -0.2320
      18    H12     20.269312   17.177124   21.778069 H          1 MOL1         0.1008
      19    H13     18.645418   16.609578   21.383501 H          1 MOL1         0.1008
      20    H14     19.168146   18.211239   20.829905 H          1 MOL1         0.1008
@<TRIPOS>BOND
    1     1     2    1
    2     1     3    1
    3     1     4    1
    4     1     5    1
    5     5     6    1
    6     5     7    1
    7     5     8    1
    8     8     9    1
    9     8    10    1
   10     8    11    1
   11    11    12    1
   12    11    13    1
   13    11    14    1
   14    14    15    1
   15    14    16    1
   16    14    17    1
   17    17    18    1
   18    17    19    1
   19    17    20    1
@<TRIPOS>SUBSTRUCTURE
       1 MOL1            1 RESIDUE      1      MOL     
@<SCITEGIC>MOL_PROPERTY
VConf Rank
SciTegic.value.IntegerValue
590

@<SCITEGIC>MOL_PROPERTY
Conf_Id
SciTegic.value.IntegerValue
65

@<SCITEGIC>MOL_PROPERTY
Delta U+W
SciTegic.value.DoubleValue
2.949

@<SCITEGIC>MOL_PROPERTY
U+W
SciTegic.value.DoubleValue
-8.829

@<SCITEGIC>MOL_PROPERTY
Grad RMS
SciTegic.value.DoubleValue
0.000000

@<SCITEGIC>MOL_PROPERTY
U
SciTegic.value.DoubleValue
49.435

@<SCITEGIC>MOL_PROPERTY
W
SciTegic.value.DoubleValue
-58.263

@<SCITEGIC>MOL_PROPERTY
W(PB)
SciTegic.value.DoubleValue
-60.125

@<SCITEGIC>MOL_PROPERTY
W(SA)
SciTegic.value.DoubleValue
1.862

@<SCITEGIC>MOL_PROPERTY
Valence
SciTegic.value.DoubleValue
3.797

@<SCITEGIC>MOL_PROPERTY
Coulomb
SciTegic.value.DoubleValue
45.253

@<SCITEGIC>MOL_PROPERTY
VdW
SciTegic.value.DoubleValue
0.384

@<SCITEGIC>MOL_PROPERTY
VdW6
SciTegic.value.DoubleValue
-5.596

@<SCITEGIC>MOL_PROPERTY
VdW12
SciTegic.value.DoubleValue
5.980

@<SCITEGIC>MOL_PROPERTY
Bond
SciTegic.value.DoubleValue
0.198

@<SCITEGIC>MOL_PROPERTY
Angle
SciTegic.value.DoubleValue
1.369

@<SCITEGIC>MOL_PROPERTY
Pdih
SciTegic.value.DoubleValue
2.230

@<SCITEGIC>MOL_PROPERTY
Idih
SciTegic.value.DoubleValue
0.000

@<SCITEGIC>MOL_PROPERTY
Tether
SciTegic.value.DoubleValue
0.000

@<TRIPOS>MOLECULE
guest-s11_confgen4.mol2 : confsearch ligand conformer 591
          20          19           1
SMALL
USER_CHARGES
 
@<TRIPOS>ATOM
       1    N1      18.739522   20.336293   23.342901 N.4        1 MOL1        -0.5919
       2    H1      17.848435   20.781846   23.099738 H          1 MOL1         0.3682
       3    H2      18.622450   19.326847   23.212369 H          1 MOL1         0.3682
       4    H3      18.890777   20.498965   24.343433 H          1 MOL1         0.3682
       5    C1      19.884825   20.872934   22.506330 C.3        1 MOL1         0.0252
       6    H4      19.946413   21.947147   22.700737 H          1 MOL1         0.0971
       7    H5      19.642837   20.732926   21.449429 H          1 MOL1         0.0971
       8    C2      21.248427   20.225293   22.821863 C.3        1 MOL1        -0.1369
       9    H6      22.031938   20.926545   22.505370 H          1 MOL1         0.0997
      10    H7      21.366160   20.117144   23.908256 H          1 MOL1         0.0997
      11    C3      21.514984   18.868235   22.116738 C.3        1 MOL1        -0.1329
      12    H8      22.532991   18.553364   22.385145 H          1 MOL1         0.0997
      13    H9      21.529580   19.008951   21.027035 H          1 MOL1         0.0997
      14    C4      20.543407   17.720245   22.491806 C.3        1 MOL1        -0.1305
      15    H10     21.106620   16.776430   22.507981 H          1 MOL1         0.0997
      16    H11     20.165078   17.855391   23.513993 H          1 MOL1         0.0997
      17    C5      19.378070   17.557773   21.487112 C.3        1 MOL1        -0.2320
      18    H12     18.804483   18.481708   21.356963 H          1 MOL1         0.1008
      19    H13     19.758000   17.265104   20.499530 H          1 MOL1         0.1008
      20    H14     18.686429   16.773077   21.820377 H          1 MOL1         0.1008
@<TRIPOS>BOND
    1     1     2    1
    2     1     3    1
    3     1     4    1
    4     1     5    1
    5     5     6    1
    6     5     7    1
    7     5     8    1
    8     8     9    1
    9     8    10    1
   10     8    11    1
   11    11    12    1
   12    11    13    1
   13    11    14    1
   14    14    15    1
   15    14    16    1
   16    14    17    1
   17    17    18    1
   18    17    19    1
   19    17    20    1
@<TRIPOS>SUBSTRUCTURE
       1 MOL1            1 RESIDUE      1      MOL     
@<SCITEGIC>MOL_PROPERTY
VConf Rank
SciTegic.value.IntegerValue
591

@<SCITEGIC>MOL_PROPERTY
Conf_Id
SciTegic.value.IntegerValue
77

@<SCITEGIC>MOL_PROPERTY
Delta U+W
SciTegic.value.DoubleValue
5.366

@<SCITEGIC>MOL_PROPERTY
U+W
SciTegic.value.DoubleValue
-6.412

@<SCITEGIC>MOL_PROPERTY
Grad RMS
SciTegic.value.DoubleValue
0.000000

@<SCITEGIC>MOL_PROPERTY
U
SciTegic.value.DoubleValue
51.542

@<SCITEGIC>MOL_PROPERTY
W
SciTegic.value.DoubleValue
-57.954

@<SCITEGIC>MOL_PROPERTY
W(PB)
SciTegic.value.DoubleValue
-59.811

@<SCITEGIC>MOL_PROPERTY
W(SA)
SciTegic.value.DoubleValue
1.857

@<SCITEGIC>MOL_PROPERTY
Valence
SciTegic.value.DoubleValue
5.347

@<SCITEGIC>MOL_PROPERTY
Coulomb
SciTegic.value.DoubleValue
45.870

@<SCITEGIC>MOL_PROPERTY
VdW
SciTegic.value.DoubleValue
0.325

@<SCITEGIC>MOL_PROPERTY
VdW6
SciTegic.value.DoubleValue
-6.161

@<SCITEGIC>MOL_PROPERTY
VdW12
SciTegic.value.DoubleValue
6.486

@<SCITEGIC>MOL_PROPERTY
Bond
SciTegic.value.DoubleValue
0.201

@<SCITEGIC>MOL_PROPERTY
Angle
SciTegic.value.DoubleValue
1.484

@<SCITEGIC>MOL_PROPERTY
Pdih
SciTegic.value.DoubleValue
3.662

@<SCITEGIC>MOL_PROPERTY
Idih
SciTegic.value.DoubleValue
0.000

@<SCITEGIC>MOL_PROPERTY
Tether
SciTegic.value.DoubleValue
0.000

@<TRIPOS>MOLECULE
guest-s11_confgen4.mol2 : confsearch ligand conformer 592
          20          19           1
SMALL
USER_CHARGES
 
@<TRIPOS>ATOM
       1    N1      21.015310   18.420388   24.147111 N.4        1 MOL1        -0.5919
       2    H1      22.037487   18.482375   24.188566 H          1 MOL1         0.3682
       3    H2      20.656546   19.372955   24.030363 H          1 MOL1         0.3682
       4    H3      20.699569   18.084418   25.063142 H          1 MOL1         0.3682
       5    C1      20.551901   17.513352   23.023679 C.3        1 MOL1         0.0252
       6    H4      19.462561   17.431163   23.065922 H          1 MOL1         0.0971
       7    H5      20.974444   16.523659   23.217290 H          1 MOL1         0.0971
       8    C2      20.988002   17.981115   21.620317 C.3        1 MOL1        -0.1369
       9    H6      22.029289   18.328365   21.651082 H          1 MOL1         0.0997
      10    H7      20.985765   17.103350   20.960518 H          1 MOL1         0.0997
      11    C3      20.081964   19.062407   20.972423 C.3        1 MOL1        -0.1329
      12    H8      19.070438   18.661101   20.819998 H          1 MOL1         0.0997
      13    H9      20.474260   19.258495   19.964862 H          1 MOL1         0.0997
      14    C4      20.009858   20.412681   21.730103 C.3        1 MOL1        -0.1305
      15    H10     20.942534   20.594753   22.280764 H          1 MOL1         0.0997
      16    H11     19.939427   21.224523   20.992396 H          1 MOL1         0.0997
      17    C5      18.783659   20.518679   22.667664 C.3        1 MOL1        -0.2320
      18    H12     18.802542   21.464946   23.223904 H          1 MOL1         0.1008
      19    H13     17.851557   20.495182   22.088046 H          1 MOL1         0.1008
      20    H14     18.738759   19.699964   23.393808 H          1 MOL1         0.1008
@<TRIPOS>BOND
    1     1     2    1
    2     1     3    1
    3     1     4    1
    4     1     5    1
    5     5     6    1
    6     5     7    1
    7     5     8    1
    8     8     9    1
    9     8    10    1
   10     8    11    1
   11    11    12    1
   12    11    13    1
   13    11    14    1
   14    14    15    1
   15    14    16    1
   16    14    17    1
   17    17    18    1
   18    17    19    1
   19    17    20    1
@<TRIPOS>SUBSTRUCTURE
       1 MOL1            1 RESIDUE      1      MOL     
@<SCITEGIC>MOL_PROPERTY
VConf Rank
SciTegic.value.IntegerValue
592

@<SCITEGIC>MOL_PROPERTY
Conf_Id
SciTegic.value.IntegerValue
67

@<SCITEGIC>MOL_PROPERTY
Delta U+W
SciTegic.value.DoubleValue
5.353

@<SCITEGIC>MOL_PROPERTY
U+W
SciTegic.value.DoubleValue
-6.425

@<SCITEGIC>MOL_PROPERTY
Grad RMS
SciTegic.value.DoubleValue
0.000000

@<SCITEGIC>MOL_PROPERTY
U
SciTegic.value.DoubleValue
51.541

@<SCITEGIC>MOL_PROPERTY
W
SciTegic.value.DoubleValue
-57.966

@<SCITEGIC>MOL_PROPERTY
W(PB)
SciTegic.value.DoubleValue
-59.821

@<SCITEGIC>MOL_PROPERTY
W(SA)
SciTegic.value.DoubleValue
1.855

@<SCITEGIC>MOL_PROPERTY
Valence
SciTegic.value.DoubleValue
5.347

@<SCITEGIC>MOL_PROPERTY
Coulomb
SciTegic.value.DoubleValue
45.870

@<SCITEGIC>MOL_PROPERTY
VdW
SciTegic.value.DoubleValue
0.325

@<SCITEGIC>MOL_PROPERTY
VdW6
SciTegic.value.DoubleValue
-6.161

@<SCITEGIC>MOL_PROPERTY
VdW12
SciTegic.value.DoubleValue
6.486

@<SCITEGIC>MOL_PROPERTY
Bond
SciTegic.value.DoubleValue
0.201

@<SCITEGIC>MOL_PROPERTY
Angle
SciTegic.value.DoubleValue
1.485

@<SCITEGIC>MOL_PROPERTY
Pdih
SciTegic.value.DoubleValue
3.662

@<SCITEGIC>MOL_PROPERTY
Idih
SciTegic.value.DoubleValue
0.000

@<SCITEGIC>MOL_PROPERTY
Tether
SciTegic.value.DoubleValue
0.000

@<TRIPOS>MOLECULE
guest-s11_confgen4.mol2 : confsearch ligand conformer 593
          20          19           1
SMALL
USER_CHARGES
 
@<TRIPOS>ATOM
       1    N1      20.103042   18.495866   25.617242 N.4        1 MOL1        -0.5919
       2    H1      21.115545   18.444890   25.767660 H          1 MOL1         0.3682
       3    H2      19.697555   18.910911   26.462770 H          1 MOL1         0.3682
       4    H3      19.757512   17.532438   25.564289 H          1 MOL1         0.3682
       5    C1      19.753925   19.292113   24.376035 C.3        1 MOL1         0.0252
       6    H4      20.124064   20.311676   24.513900 H          1 MOL1         0.0971
       7    H5      18.664204   19.330628   24.295163 H          1 MOL1         0.0971
       8    C2      20.348019   18.695364   23.087543 C.3        1 MOL1        -0.1369
       9    H6      21.441156   18.643786   23.179508 H          1 MOL1         0.0997
      10    H7      19.986332   17.666109   22.961510 H          1 MOL1         0.0997
      11    C3      19.969204   19.535532   21.847645 C.3        1 MOL1        -0.1329
      12    H8      20.327982   20.565921   21.979435 H          1 MOL1         0.0997
      13    H9      18.874901   19.589351   21.761640 H          1 MOL1         0.0997
      14    C4      20.560500   18.945650   20.547666 C.3        1 MOL1        -0.1305
      15    H10     21.655311   18.891963   20.628626 H          1 MOL1         0.0997
      16    H11     20.202369   17.915574   20.410800 H          1 MOL1         0.0997
      17    C5      20.179531   19.788320   19.311645 C.3        1 MOL1        -0.2320
      18    H12     20.554320   20.816095   19.403445 H          1 MOL1         0.1008
      19    H13     20.608270   19.354028   18.399167 H          1 MOL1         0.1008
      20    H14     19.090048   19.831973   19.183830 H          1 MOL1         0.1008
@<TRIPOS>BOND
    1     1     2    1
    2     1     3    1
    3     1     4    1
    4     1     5    1
    5     5     6    1
    6     5     7    1
    7     5     8    1
    8     8     9    1
    9     8    10    1
   10     8    11    1
   11    11    12    1
   12    11    13    1
   13    11    14    1
   14    14    15    1
   15    14    16    1
   16    14    17    1
   17    17    18    1
   18    17    19    1
   19    17    20    1
@<TRIPOS>SUBSTRUCTURE
       1 MOL1            1 RESIDUE      1      MOL     
@<SCITEGIC>MOL_PROPERTY
VConf Rank
SciTegic.value.IntegerValue
593

@<SCITEGIC>MOL_PROPERTY
Conf_Id
SciTegic.value.IntegerValue
72

@<SCITEGIC>MOL_PROPERTY
Delta U+W
SciTegic.value.DoubleValue
0.000

@<SCITEGIC>MOL_PROPERTY
U+W
SciTegic.value.DoubleValue
-11.778

@<SCITEGIC>MOL_PROPERTY
Grad RMS
SciTegic.value.DoubleValue
0.000000

@<SCITEGIC>MOL_PROPERTY
U
SciTegic.value.DoubleValue
45.772

@<SCITEGIC>MOL_PROPERTY
W
SciTegic.value.DoubleValue
-57.550

@<SCITEGIC>MOL_PROPERTY
W(PB)
SciTegic.value.DoubleValue
-59.511

@<SCITEGIC>MOL_PROPERTY
W(SA)
SciTegic.value.DoubleValue
1.961

@<SCITEGIC>MOL_PROPERTY
Valence
SciTegic.value.DoubleValue
1.299

@<SCITEGIC>MOL_PROPERTY
Coulomb
SciTegic.value.DoubleValue
44.177

@<SCITEGIC>MOL_PROPERTY
VdW
SciTegic.value.DoubleValue
0.297

@<SCITEGIC>MOL_PROPERTY
VdW6
SciTegic.value.DoubleValue
-3.490

@<SCITEGIC>MOL_PROPERTY
VdW12
SciTegic.value.DoubleValue
3.786

@<SCITEGIC>MOL_PROPERTY
Bond
SciTegic.value.DoubleValue
0.096

@<SCITEGIC>MOL_PROPERTY
Angle
SciTegic.value.DoubleValue
0.381

@<SCITEGIC>MOL_PROPERTY
Pdih
SciTegic.value.DoubleValue
0.822

@<SCITEGIC>MOL_PROPERTY
Idih
SciTegic.value.DoubleValue
0.000

@<SCITEGIC>MOL_PROPERTY
Tether
SciTegic.value.DoubleValue
0.000

@<TRIPOS>MOLECULE
guest-s11_confgen4.mol2 : confsearch ligand conformer 594
          20          19           1
SMALL
USER_CHARGES
 
@<TRIPOS>ATOM
       1    N1      17.361219   20.117291   23.282494 N.4        1 MOL1        -0.5919
       2    H1      17.617896   20.097220   24.274487 H          1 MOL1         0.3682
       3    H2      17.452655   21.088148   22.967155 H          1 MOL1         0.3682
       4    H3      16.365083   19.879866   23.228408 H          1 MOL1         0.3682
       5    C1      18.210970   19.171416   22.457984 C.3        1 MOL1         0.0252
       6    H4      17.863658   19.221597   21.422440 H          1 MOL1         0.0971
       7    H5      18.042067   18.156419   22.827793 H          1 MOL1         0.0971
       8    C2      19.713508   19.500352   22.516710 C.3        1 MOL1        -0.1369
       9    H6      19.876678   20.525834   22.159538 H          1 MOL1         0.0997
      10    H7      20.046924   19.464465   23.561513 H          1 MOL1         0.0997
      11    C3      20.540866   18.512768   21.660389 C.3        1 MOL1        -0.1329
      12    H8      20.142484   18.506751   20.636183 H          1 MOL1         0.0997
      13    H9      20.414034   17.491815   22.046596 H          1 MOL1         0.0997
      14    C4      22.048374   18.859866   21.600308 C.3        1 MOL1        -0.1305
      15    H10     22.539584   18.176828   20.893123 H          1 MOL1         0.0997
      16    H11     22.181086   19.871578   21.192015 H          1 MOL1         0.0997
      17    C5      22.758629   18.754520   22.969239 C.3        1 MOL1        -0.2320
      18    H12     22.617236   17.760200   23.412353 H          1 MOL1         0.1008
      19    H13     23.837773   18.920435   22.855776 H          1 MOL1         0.1008
      20    H14     22.383303   19.503527   23.677434 H          1 MOL1         0.1008
@<TRIPOS>BOND
    1     1     2    1
    2     1     3    1
    3     1     4    1
    4     1     5    1
    5     5     6    1
    6     5     7    1
    7     5     8    1
    8     8     9    1
    9     8    10    1
   10     8    11    1
   11    11    12    1
   12    11    13    1
   13    11    14    1
   14    14    15    1
   15    14    16    1
   16    14    17    1
   17    17    18    1
   18    17    19    1
   19    17    20    1
@<TRIPOS>SUBSTRUCTURE
       1 MOL1            1 RESIDUE      1      MOL     
@<SCITEGIC>MOL_PROPERTY
VConf Rank
SciTegic.value.IntegerValue
594

@<SCITEGIC>MOL_PROPERTY
Conf_Id
SciTegic.value.IntegerValue
42

@<SCITEGIC>MOL_PROPERTY
Delta U+W
SciTegic.value.DoubleValue
0.508

@<SCITEGIC>MOL_PROPERTY
U+W
SciTegic.value.DoubleValue
-11.270

@<SCITEGIC>MOL_PROPERTY
Grad RMS
SciTegic.value.DoubleValue
0.000000

@<SCITEGIC>MOL_PROPERTY
U
SciTegic.value.DoubleValue
46.486

@<SCITEGIC>MOL_PROPERTY
W
SciTegic.value.DoubleValue
-57.756

@<SCITEGIC>MOL_PROPERTY
W(PB)
SciTegic.value.DoubleValue
-59.705

@<SCITEGIC>MOL_PROPERTY
W(SA)
SciTegic.value.DoubleValue
1.949

@<SCITEGIC>MOL_PROPERTY
Valence
SciTegic.value.DoubleValue
1.806

@<SCITEGIC>MOL_PROPERTY
Coulomb
SciTegic.value.DoubleValue
44.248

@<SCITEGIC>MOL_PROPERTY
VdW
SciTegic.value.DoubleValue
0.433

@<SCITEGIC>MOL_PROPERTY
VdW6
SciTegic.value.DoubleValue
-4.089

@<SCITEGIC>MOL_PROPERTY
VdW12
SciTegic.value.DoubleValue
4.522

@<SCITEGIC>MOL_PROPERTY
Bond
SciTegic.value.DoubleValue
0.131

@<SCITEGIC>MOL_PROPERTY
Angle
SciTegic.value.DoubleValue
0.628

@<SCITEGIC>MOL_PROPERTY
Pdih
SciTegic.value.DoubleValue
1.047

@<SCITEGIC>MOL_PROPERTY
Idih
SciTegic.value.DoubleValue
0.000

@<SCITEGIC>MOL_PROPERTY
Tether
SciTegic.value.DoubleValue
0.000

@<TRIPOS>MOLECULE
guest-s11_confgen4.mol2 : confsearch ligand conformer 595
          20          19           1
SMALL
USER_CHARGES
 
@<TRIPOS>ATOM
       1    N1      18.832961   17.883319   24.910050 N.4        1 MOL1        -0.5919
       2    H1      18.307035   18.715978   25.193679 H          1 MOL1         0.3682
       3    H2      18.209301   17.317484   24.325917 H          1 MOL1         0.3682
       4    H3      19.014501   17.342079   25.761921 H          1 MOL1         0.3682
       5    C1      20.115570   18.242378   24.187158 C.3        1 MOL1         0.0252
       6    H4      20.636742   17.312862   23.942441 H          1 MOL1         0.0971
       7    H5      20.741819   18.815851   24.875950 H          1 MOL1         0.0971
       8    C2      19.878747   19.056639   22.902571 C.3        1 MOL1        -0.1369
       9    H6      19.235117   18.479446   22.226808 H          1 MOL1         0.0997
      10    H7      19.341244   19.981464   23.150766 H          1 MOL1         0.0997
      11    C3      21.212919   19.402240   22.199949 C.3        1 MOL1        -0.1329
      12    H8      21.729311   18.476521   21.910173 H          1 MOL1         0.0997
      13    H9      21.872607   19.912218   22.915825 H          1 MOL1         0.0997
      14    C4      21.040026   20.309189   20.957283 C.3        1 MOL1        -0.1305
      15    H10     20.545206   21.246765   21.247079 H          1 MOL1         0.0997
      16    H11     22.035066   20.590009   20.584491 H          1 MOL1         0.0997
      17    C5      20.250141   19.637387   19.810855 C.3        1 MOL1        -0.2320
      18    H12     19.208378   19.446085   20.096436 H          1 MOL1         0.1008
      19    H13     20.234913   20.284492   18.924302 H          1 MOL1         0.1008
      20    H14     20.708735   18.683006   19.521266 H          1 MOL1         0.1008
@<TRIPOS>BOND
    1     1     2    1
    2     1     3    1
    3     1     4    1
    4     1     5    1
    5     5     6    1
    6     5     7    1
    7     5     8    1
    8     8     9    1
    9     8    10    1
   10     8    11    1
   11    11    12    1
   12    11    13    1
   13    11    14    1
   14    14    15    1
   15    14    16    1
   16    14    17    1
   17    17    18    1
   18    17    19    1
   19    17    20    1
@<TRIPOS>SUBSTRUCTURE
       1 MOL1            1 RESIDUE      1      MOL     
@<SCITEGIC>MOL_PROPERTY
VConf Rank
SciTegic.value.IntegerValue
595

@<SCITEGIC>MOL_PROPERTY
Conf_Id
SciTegic.value.IntegerValue
41

@<SCITEGIC>MOL_PROPERTY
Delta U+W
SciTegic.value.DoubleValue
0.515

@<SCITEGIC>MOL_PROPERTY
U+W
SciTegic.value.DoubleValue
-11.263

@<SCITEGIC>MOL_PROPERTY
Grad RMS
SciTegic.value.DoubleValue
0.000000

@<SCITEGIC>MOL_PROPERTY
U
SciTegic.value.DoubleValue
46.486

@<SCITEGIC>MOL_PROPERTY
W
SciTegic.value.DoubleValue
-57.749

@<SCITEGIC>MOL_PROPERTY
W(PB)
SciTegic.value.DoubleValue
-59.685

@<SCITEGIC>MOL_PROPERTY
W(SA)
SciTegic.value.DoubleValue
1.936

@<SCITEGIC>MOL_PROPERTY
Valence
SciTegic.value.DoubleValue
1.806

@<SCITEGIC>MOL_PROPERTY
Coulomb
SciTegic.value.DoubleValue
44.248

@<SCITEGIC>MOL_PROPERTY
VdW
SciTegic.value.DoubleValue
0.433

@<SCITEGIC>MOL_PROPERTY
VdW6
SciTegic.value.DoubleValue
-4.089

@<SCITEGIC>MOL_PROPERTY
VdW12
SciTegic.value.DoubleValue
4.522

@<SCITEGIC>MOL_PROPERTY
Bond
SciTegic.value.DoubleValue
0.131

@<SCITEGIC>MOL_PROPERTY
Angle
SciTegic.value.DoubleValue
0.628

@<SCITEGIC>MOL_PROPERTY
Pdih
SciTegic.value.DoubleValue
1.047

@<SCITEGIC>MOL_PROPERTY
Idih
SciTegic.value.DoubleValue
0.000

@<SCITEGIC>MOL_PROPERTY
Tether
SciTegic.value.DoubleValue
0.000

@<TRIPOS>MOLECULE
guest-s11_confgen4.mol2 : confsearch ligand conformer 596
          20          19           1
SMALL
USER_CHARGES
 
@<TRIPOS>ATOM
       1    N1      18.861386   19.362069   24.901536 N.4        1 MOL1        -0.5919
       2    H1      18.610172   19.000681   25.827706 H          1 MOL1         0.3682
       3    H2      19.687620   19.954191   25.026715 H          1 MOL1         0.3682
       4    H3      18.094264   19.971905   24.601838 H          1 MOL1         0.3682
       5    C1      19.113290   18.242401   23.910047 C.3        1 MOL1         0.0252
       6    H4      18.207221   17.632081   23.863702 H          1 MOL1         0.0971
       7    H5      19.923000   17.619262   24.299289 H          1 MOL1         0.0971
       8    C2      19.470732   18.731600   22.492730 C.3        1 MOL1        -0.1369
       9    H6      19.515148   17.855682   21.833638 H          1 MOL1         0.0997
      10    H7      18.663726   19.371197   22.111487 H          1 MOL1         0.0997
      11    C3      20.819920   19.492186   22.444580 C.3        1 MOL1        -0.1329
      12    H8      21.625940   18.838565   22.805938 H          1 MOL1         0.0997
      13    H9      20.782728   20.346440   23.133400 H          1 MOL1         0.0997
      14    C4      21.178170   20.023453   21.035185 C.3        1 MOL1        -0.1305
      15    H10     20.381133   20.688851   20.674848 H          1 MOL1         0.0997
      16    H11     22.083039   20.642542   21.111885 H          1 MOL1         0.0997
      17    C5      21.429049   18.903733   19.999303 C.3        1 MOL1        -0.2320
      18    H12     20.515951   18.331936   19.792980 H          1 MOL1         0.1008
      19    H13     21.771489   19.330806   19.047835 H          1 MOL1         0.1008
      20    H14     22.200554   18.206170   20.350285 H          1 MOL1         0.1008
@<TRIPOS>BOND
    1     1     2    1
    2     1     3    1
    3     1     4    1
    4     1     5    1
    5     5     6    1
    6     5     7    1
    7     5     8    1
    8     8     9    1
    9     8    10    1
   10     8    11    1
   11    11    12    1
   12    11    13    1
   13    11    14    1
   14    14    15    1
   15    14    16    1
   16    14    17    1
   17    17    18    1
   18    17    19    1
   19    17    20    1
@<TRIPOS>SUBSTRUCTURE
       1 MOL1            1 RESIDUE      1      MOL     
@<SCITEGIC>MOL_PROPERTY
VConf Rank
SciTegic.value.IntegerValue
596

@<SCITEGIC>MOL_PROPERTY
Conf_Id
SciTegic.value.IntegerValue
33

@<SCITEGIC>MOL_PROPERTY
Delta U+W
SciTegic.value.DoubleValue
0.703

@<SCITEGIC>MOL_PROPERTY
U+W
SciTegic.value.DoubleValue
-11.075

@<SCITEGIC>MOL_PROPERTY
Grad RMS
SciTegic.value.DoubleValue
0.000000

@<SCITEGIC>MOL_PROPERTY
U
SciTegic.value.DoubleValue
47.080

@<SCITEGIC>MOL_PROPERTY
W
SciTegic.value.DoubleValue
-58.154

@<SCITEGIC>MOL_PROPERTY
W(PB)
SciTegic.value.DoubleValue
-60.053

@<SCITEGIC>MOL_PROPERTY
W(SA)
SciTegic.value.DoubleValue
1.899

@<SCITEGIC>MOL_PROPERTY
Valence
SciTegic.value.DoubleValue
1.943

@<SCITEGIC>MOL_PROPERTY
Coulomb
SciTegic.value.DoubleValue
44.572

@<SCITEGIC>MOL_PROPERTY
VdW
SciTegic.value.DoubleValue
0.565

@<SCITEGIC>MOL_PROPERTY
VdW6
SciTegic.value.DoubleValue
-4.575

@<SCITEGIC>MOL_PROPERTY
VdW12
SciTegic.value.DoubleValue
5.139

@<SCITEGIC>MOL_PROPERTY
Bond
SciTegic.value.DoubleValue
0.158

@<SCITEGIC>MOL_PROPERTY
Angle
SciTegic.value.DoubleValue
0.700

@<SCITEGIC>MOL_PROPERTY
Pdih
SciTegic.value.DoubleValue
1.085

@<SCITEGIC>MOL_PROPERTY
Idih
SciTegic.value.DoubleValue
0.000

@<SCITEGIC>MOL_PROPERTY
Tether
SciTegic.value.DoubleValue
0.000

@<TRIPOS>MOLECULE
guest-s11_confgen4.mol2 : confsearch ligand conformer 597
          20          19           1
SMALL
USER_CHARGES
 
@<TRIPOS>ATOM
       1    N1      22.263418   20.735506   23.227001 N.4        1 MOL1        -0.5919
       2    H1      22.658222   21.507116   23.774950 H          1 MOL1         0.3682
       3    H2      23.020026   20.061485   23.073924 H          1 MOL1         0.3682
       4    H3      22.009902   21.119057   22.311820 H          1 MOL1         0.3682
       5    C1      21.074498   20.101654   23.923321 C.3        1 MOL1         0.0252
       6    H4      20.317615   20.875718   24.076279 H          1 MOL1         0.0971
       7    H5      21.411474   19.757402   24.904921 H          1 MOL1         0.0971
       8    C2      20.457365   18.917870   23.152826 C.3        1 MOL1        -0.1369
       9    H6      21.224144   18.149916   22.985530 H          1 MOL1         0.0997
      10    H7      19.690243   18.461900   23.790967 H          1 MOL1         0.0997
      11    C3      19.829012   19.345104   21.802359 C.3        1 MOL1        -0.1329
      12    H8      20.592321   19.833464   21.182300 H          1 MOL1         0.0997
      13    H9      19.047372   20.096828   21.979609 H          1 MOL1         0.0997
      14    C4      19.236139   18.163245   20.996947 C.3        1 MOL1        -0.1305
      15    H10     18.917612   18.533017   20.012188 H          1 MOL1         0.0997
      16    H11     20.017624   17.414657   20.805210 H          1 MOL1         0.0997
      17    C5      18.028850   17.489541   21.688569 C.3        1 MOL1        -0.2320
      18    H12     17.245729   18.223221   21.919743 H          1 MOL1         0.1008
      19    H13     17.589282   16.725267   21.034647 H          1 MOL1         0.1008
      20    H14     18.322604   16.993768   22.621944 H          1 MOL1         0.1008
@<TRIPOS>BOND
    1     1     2    1
    2     1     3    1
    3     1     4    1
    4     1     5    1
    5     5     6    1
    6     5     7    1
    7     5     8    1
    8     8     9    1
    9     8    10    1
   10     8    11    1
   11    11    12    1
   12    11    13    1
   13    11    14    1
   14    14    15    1
   15    14    16    1
   16    14    17    1
   17    17    18    1
   18    17    19    1
   19    17    20    1
@<TRIPOS>SUBSTRUCTURE
       1 MOL1            1 RESIDUE      1      MOL     
@<SCITEGIC>MOL_PROPERTY
VConf Rank
SciTegic.value.IntegerValue
597

@<SCITEGIC>MOL_PROPERTY
Conf_Id
SciTegic.value.IntegerValue
24

@<SCITEGIC>MOL_PROPERTY
Delta U+W
SciTegic.value.DoubleValue
0.847

@<SCITEGIC>MOL_PROPERTY
U+W
SciTegic.value.DoubleValue
-10.931

@<SCITEGIC>MOL_PROPERTY
Grad RMS
SciTegic.value.DoubleValue
0.000000

@<SCITEGIC>MOL_PROPERTY
U
SciTegic.value.DoubleValue
47.080

@<SCITEGIC>MOL_PROPERTY
W
SciTegic.value.DoubleValue
-58.011

@<SCITEGIC>MOL_PROPERTY
W(PB)
SciTegic.value.DoubleValue
-59.914

@<SCITEGIC>MOL_PROPERTY
W(SA)
SciTegic.value.DoubleValue
1.903

@<SCITEGIC>MOL_PROPERTY
Valence
SciTegic.value.DoubleValue
1.943

@<SCITEGIC>MOL_PROPERTY
Coulomb
SciTegic.value.DoubleValue
44.572

@<SCITEGIC>MOL_PROPERTY
VdW
SciTegic.value.DoubleValue
0.565

@<SCITEGIC>MOL_PROPERTY
VdW6
SciTegic.value.DoubleValue
-4.575

@<SCITEGIC>MOL_PROPERTY
VdW12
SciTegic.value.DoubleValue
5.140

@<SCITEGIC>MOL_PROPERTY
Bond
SciTegic.value.DoubleValue
0.158

@<SCITEGIC>MOL_PROPERTY
Angle
SciTegic.value.DoubleValue
0.700

@<SCITEGIC>MOL_PROPERTY
Pdih
SciTegic.value.DoubleValue
1.085

@<SCITEGIC>MOL_PROPERTY
Idih
SciTegic.value.DoubleValue
0.000

@<SCITEGIC>MOL_PROPERTY
Tether
SciTegic.value.DoubleValue
0.000

@<TRIPOS>MOLECULE
guest-s11_confgen4.mol2 : confsearch ligand conformer 598
          20          19           1
SMALL
USER_CHARGES
 
@<TRIPOS>ATOM
       1    N1      20.888924   16.715479   23.359444 N.4        1 MOL1        -0.5919
       2    H1      20.305979   16.026839   23.846721 H          1 MOL1         0.3682
       3    H2      20.998220   16.383930   22.395934 H          1 MOL1         0.3682
       4    H3      21.815401   16.682426   23.796315 H          1 MOL1         0.3682
       5    C1      20.285738   18.104483   23.415681 C.3        1 MOL1         0.0252
       6    H4      20.171158   18.380971   24.467253 H          1 MOL1         0.0971
       7    H5      19.292245   18.057748   22.962061 H          1 MOL1         0.0971
       8    C2      21.137532   19.164025   22.691497 C.3        1 MOL1        -0.1369
       9    H6      22.145390   19.173497   23.127262 H          1 MOL1         0.0997
      10    H7      21.260823   18.882731   21.637871 H          1 MOL1         0.0997
      11    C3      20.536263   20.588171   22.792878 C.3        1 MOL1        -0.1329
      12    H8      21.196893   21.291955   22.267979 H          1 MOL1         0.0997
      13    H9      20.537275   20.901450   23.846134 H          1 MOL1         0.0997
      14    C4      19.097855   20.728878   22.232157 C.3        1 MOL1        -0.1305
      15    H10     18.401192   20.110625   22.814569 H          1 MOL1         0.0997
      16    H11     18.767489   21.767694   22.372159 H          1 MOL1         0.0997
      17    C5      18.984509   20.368313   20.733440 C.3        1 MOL1        -0.2320
      18    H12     17.971239   20.573101   20.364320 H          1 MOL1         0.1008
      19    H13     19.686757   20.958942   20.130960 H          1 MOL1         0.1008
      20    H14     19.190398   19.305033   20.558279 H          1 MOL1         0.1008
@<TRIPOS>BOND
    1     1     2    1
    2     1     3    1
    3     1     4    1
    4     1     5    1
    5     5     6    1
    6     5     7    1
    7     5     8    1
    8     8     9    1
    9     8    10    1
   10     8    11    1
   11    11    12    1
   12    11    13    1
   13    11    14    1
   14    14    15    1
   15    14    16    1
   16    14    17    1
   17    17    18    1
   18    17    19    1
   19    17    20    1
@<TRIPOS>SUBSTRUCTURE
       1 MOL1            1 RESIDUE      1      MOL     
@<SCITEGIC>MOL_PROPERTY
VConf Rank
SciTegic.value.IntegerValue
598

@<SCITEGIC>MOL_PROPERTY
Conf_Id
SciTegic.value.IntegerValue
64

@<SCITEGIC>MOL_PROPERTY
Delta U+W
SciTegic.value.DoubleValue
0.707

@<SCITEGIC>MOL_PROPERTY
U+W
SciTegic.value.DoubleValue
-11.070

@<SCITEGIC>MOL_PROPERTY
Grad RMS
SciTegic.value.DoubleValue
0.000000

@<SCITEGIC>MOL_PROPERTY
U
SciTegic.value.DoubleValue
47.077

@<SCITEGIC>MOL_PROPERTY
W
SciTegic.value.DoubleValue
-58.148

@<SCITEGIC>MOL_PROPERTY
W(PB)
SciTegic.value.DoubleValue
-60.054

@<SCITEGIC>MOL_PROPERTY
W(SA)
SciTegic.value.DoubleValue
1.906

@<SCITEGIC>MOL_PROPERTY
Valence
SciTegic.value.DoubleValue
2.039

@<SCITEGIC>MOL_PROPERTY
Coulomb
SciTegic.value.DoubleValue
44.655

@<SCITEGIC>MOL_PROPERTY
VdW
SciTegic.value.DoubleValue
0.383

@<SCITEGIC>MOL_PROPERTY
VdW6
SciTegic.value.DoubleValue
-4.912

@<SCITEGIC>MOL_PROPERTY
VdW12
SciTegic.value.DoubleValue
5.295

@<SCITEGIC>MOL_PROPERTY
Bond
SciTegic.value.DoubleValue
0.159

@<SCITEGIC>MOL_PROPERTY
Angle
SciTegic.value.DoubleValue
0.856

@<SCITEGIC>MOL_PROPERTY
Pdih
SciTegic.value.DoubleValue
1.024

@<SCITEGIC>MOL_PROPERTY
Idih
SciTegic.value.DoubleValue
0.000

@<SCITEGIC>MOL_PROPERTY
Tether
SciTegic.value.DoubleValue
0.000

@<TRIPOS>MOLECULE
guest-s11_confgen4.mol2 : confsearch ligand conformer 599
          20          19           1
SMALL
USER_CHARGES
 
@<TRIPOS>ATOM
       1    N1      22.670980   17.918059   22.133592 N.4        1 MOL1        -0.5919
       2    H1      23.363191   18.533616   21.695137 H          1 MOL1         0.3682
       3    H2      22.852095   17.931285   23.142177 H          1 MOL1         0.3682
       4    H3      22.870982   16.966543   21.807856 H          1 MOL1         0.3682
       5    C1      21.252179   18.338517   21.807177 C.3        1 MOL1         0.0252
       6    H4      20.573086   17.623953   22.279634 H          1 MOL1         0.0971
       7    H5      21.120996   18.273160   20.723711 H          1 MOL1         0.0971
       8    C2      20.918677   19.764679   22.284104 C.3        1 MOL1        -0.1369
       9    H6      21.058885   19.833861   23.370387 H          1 MOL1         0.0997
      10    H7      21.632316   20.468988   21.836413 H          1 MOL1         0.0997
      11    C3      19.481405   20.202370   21.906384 C.3        1 MOL1        -0.1329
      12    H8      19.398646   20.247735   20.811584 H          1 MOL1         0.0997
      13    H9      19.315654   21.227855   22.264392 H          1 MOL1         0.0997
      14    C4      18.356947   19.286398   22.453936 C.3        1 MOL1        -0.1305
      15    H10     17.388668   19.677858   22.111770 H          1 MOL1         0.0997
      16    H11     18.443688   18.279715   22.022843 H          1 MOL1         0.0997
      17    C5      18.338276   19.191388   23.996542 C.3        1 MOL1        -0.2320
      18    H12     18.272823   20.187641   24.452800 H          1 MOL1         0.1008
      19    H13     17.471320   18.609619   24.335421 H          1 MOL1         0.1008
      20    H14     19.238401   18.695390   24.380464 H          1 MOL1         0.1008
@<TRIPOS>BOND
    1     1     2    1
    2     1     3    1
    3     1     4    1
    4     1     5    1
    5     5     6    1
    6     5     7    1
    7     5     8    1
    8     8     9    1
    9     8    10    1
   10     8    11    1
   11    11    12    1
   12    11    13    1
   13    11    14    1
   14    14    15    1
   15    14    16    1
   16    14    17    1
   17    17    18    1
   18    17    19    1
   19    17    20    1
@<TRIPOS>SUBSTRUCTURE
       1 MOL1            1 RESIDUE      1      MOL     
@<SCITEGIC>MOL_PROPERTY
VConf Rank
SciTegic.value.IntegerValue
599

@<SCITEGIC>MOL_PROPERTY
Conf_Id
SciTegic.value.IntegerValue
22

@<SCITEGIC>MOL_PROPERTY
Delta U+W
SciTegic.value.DoubleValue
0.731

@<SCITEGIC>MOL_PROPERTY
U+W
SciTegic.value.DoubleValue
-11.047

@<SCITEGIC>MOL_PROPERTY
Grad RMS
SciTegic.value.DoubleValue
0.000000

@<SCITEGIC>MOL_PROPERTY
U
SciTegic.value.DoubleValue
47.078

@<SCITEGIC>MOL_PROPERTY
W
SciTegic.value.DoubleValue
-58.125

@<SCITEGIC>MOL_PROPERTY
W(PB)
SciTegic.value.DoubleValue
-60.031

@<SCITEGIC>MOL_PROPERTY
W(SA)
SciTegic.value.DoubleValue
1.906

@<SCITEGIC>MOL_PROPERTY
Valence
SciTegic.value.DoubleValue
2.039

@<SCITEGIC>MOL_PROPERTY
Coulomb
SciTegic.value.DoubleValue
44.655

@<SCITEGIC>MOL_PROPERTY
VdW
SciTegic.value.DoubleValue
0.383

@<SCITEGIC>MOL_PROPERTY
VdW6
SciTegic.value.DoubleValue
-4.913

@<SCITEGIC>MOL_PROPERTY
VdW12
SciTegic.value.DoubleValue
5.296

@<SCITEGIC>MOL_PROPERTY
Bond
SciTegic.value.DoubleValue
0.159

@<SCITEGIC>MOL_PROPERTY
Angle
SciTegic.value.DoubleValue
0.856

@<SCITEGIC>MOL_PROPERTY
Pdih
SciTegic.value.DoubleValue
1.024

@<SCITEGIC>MOL_PROPERTY
Idih
SciTegic.value.DoubleValue
0.000

@<SCITEGIC>MOL_PROPERTY
Tether
SciTegic.value.DoubleValue
0.000

@<TRIPOS>MOLECULE
guest-s11_confgen4.mol2 : confsearch ligand conformer 600
          20          19           1
SMALL
USER_CHARGES
 
@<TRIPOS>ATOM
       1    N1      18.621806   16.938579   22.650000 N.4        1 MOL1        -0.5919
       2    H1      17.968221   17.075973   21.872643 H          1 MOL1         0.3682
       3    H2      19.147783   16.081304   22.453180 H          1 MOL1         0.3682
       4    H3      18.056081   16.754799   23.485268 H          1 MOL1         0.3682
       5    C1      19.535395   18.132724   22.839694 C.3        1 MOL1         0.0252
       6    H4      20.183023   17.930485   23.697058 H          1 MOL1         0.0971
       7    H5      18.908313   18.996069   23.073511 H          1 MOL1         0.0971
       8    C2      20.394991   18.438640   21.600266 C.3        1 MOL1        -0.1369
       9    H6      20.928469   17.524884   21.306371 H          1 MOL1         0.0997
      10    H7      19.741363   18.700451   20.757645 H          1 MOL1         0.0997
      11    C3      21.436330   19.565171   21.820395 C.3        1 MOL1        -0.1329
      12    H8      22.046936   19.632367   20.909244 H          1 MOL1         0.0997
      13    H9      22.132174   19.286229   22.623726 H          1 MOL1         0.0997
      14    C4      20.833386   20.966973   22.097163 C.3        1 MOL1        -0.1305
      15    H10     21.544906   21.724834   21.740107 H          1 MOL1         0.0997
      16    H11     19.917694   21.111539   21.506952 H          1 MOL1         0.0997
      17    C5      20.557017   21.246360   23.593291 C.3        1 MOL1        -0.2320
      18    H12     19.785198   20.587084   24.003809 H          1 MOL1         0.1008
      19    H13     21.467939   21.118976   24.192457 H          1 MOL1         0.1008
      20    H14     20.211583   22.279168   23.731014 H          1 MOL1         0.1008
@<TRIPOS>BOND
    1     1     2    1
    2     1     3    1
    3     1     4    1
    4     1     5    1
    5     5     6    1
    6     5     7    1
    7     5     8    1
    8     8     9    1
    9     8    10    1
   10     8    11    1
   11    11    12    1
   12    11    13    1
   13    11    14    1
   14    14    15    1
   15    14    16    1
   16    14    17    1
   17    17    18    1
   18    17    19    1
   19    17    20    1
@<TRIPOS>SUBSTRUCTURE
       1 MOL1            1 RESIDUE      1      MOL     
@<SCITEGIC>MOL_PROPERTY
VConf Rank
SciTegic.value.IntegerValue
600

@<SCITEGIC>MOL_PROPERTY
Conf_Id
SciTegic.value.IntegerValue
61

@<SCITEGIC>MOL_PROPERTY
Delta U+W
SciTegic.value.DoubleValue
2.669

@<SCITEGIC>MOL_PROPERTY
U+W
SciTegic.value.DoubleValue
-9.108

@<SCITEGIC>MOL_PROPERTY
Grad RMS
SciTegic.value.DoubleValue
0.000000

@<SCITEGIC>MOL_PROPERTY
U
SciTegic.value.DoubleValue
48.916

@<SCITEGIC>MOL_PROPERTY
W
SciTegic.value.DoubleValue
-58.025

@<SCITEGIC>MOL_PROPERTY
W(PB)
SciTegic.value.DoubleValue
-59.935

@<SCITEGIC>MOL_PROPERTY
W(SA)
SciTegic.value.DoubleValue
1.911

@<SCITEGIC>MOL_PROPERTY
Valence
SciTegic.value.DoubleValue
3.785

@<SCITEGIC>MOL_PROPERTY
Coulomb
SciTegic.value.DoubleValue
44.716

@<SCITEGIC>MOL_PROPERTY
VdW
SciTegic.value.DoubleValue
0.415

@<SCITEGIC>MOL_PROPERTY
VdW6
SciTegic.value.DoubleValue
-4.836

@<SCITEGIC>MOL_PROPERTY
VdW12
SciTegic.value.DoubleValue
5.251

@<SCITEGIC>MOL_PROPERTY
Bond
SciTegic.value.DoubleValue
0.175

@<SCITEGIC>MOL_PROPERTY
Angle
SciTegic.value.DoubleValue
1.195

@<SCITEGIC>MOL_PROPERTY
Pdih
SciTegic.value.DoubleValue
2.415

@<SCITEGIC>MOL_PROPERTY
Idih
SciTegic.value.DoubleValue
0.000

@<SCITEGIC>MOL_PROPERTY
Tether
SciTegic.value.DoubleValue
0.000

@<TRIPOS>MOLECULE
guest-s11_confgen4.mol2 : confsearch ligand conformer 601
          20          19           1
SMALL
USER_CHARGES
 
@<TRIPOS>ATOM
       1    N1      18.797121   18.473105   24.198397 N.4        1 MOL1        -0.5919
       2    H1      18.211942   17.734074   24.602180 H          1 MOL1         0.3682
       3    H2      18.686824   19.298343   24.795991 H          1 MOL1         0.3682
       4    H3      18.399123   18.706220   23.285008 H          1 MOL1         0.3682
       5    C1      20.248437   18.045340   24.092236 C.3        1 MOL1         0.0252
       6    H4      20.299828   17.131602   23.494090 H          1 MOL1         0.0971
       7    H5      20.584080   17.805480   25.104842 H          1 MOL1         0.0971
       8    C2      21.185373   19.116129   23.494710 C.3        1 MOL1        -0.1369
       9    H6      20.943704   20.102858   23.911575 H          1 MOL1         0.0997
      10    H7      22.206488   18.890225   23.829615 H          1 MOL1         0.0997
      11    C3      21.195733   19.171702   21.945332 C.3        1 MOL1        -0.1329
      12    H8      21.495958   18.193037   21.545900 H          1 MOL1         0.0997
      13    H9      21.975567   19.880569   21.634130 H          1 MOL1         0.0997
      14    C4      19.851535   19.597762   21.309787 C.3        1 MOL1        -0.1305
      15    H10     19.092271   18.824663   21.482083 H          1 MOL1         0.0997
      16    H11     19.491051   20.522321   21.782210 H          1 MOL1         0.0997
      17    C5      19.987864   19.822078   19.788565 C.3        1 MOL1        -0.2320
      18    H12     19.024101   20.114191   19.351665 H          1 MOL1         0.1008
      19    H13     20.711148   20.618294   19.569195 H          1 MOL1         0.1008
      20    H14     20.323150   18.907040   19.283036 H          1 MOL1         0.1008
@<TRIPOS>BOND
    1     1     2    1
    2     1     3    1
    3     1     4    1
    4     1     5    1
    5     5     6    1
    6     5     7    1
    7     5     8    1
    8     8     9    1
    9     8    10    1
   10     8    11    1
   11    11    12    1
   12    11    13    1
   13    11    14    1
   14    14    15    1
   15    14    16    1
   16    14    17    1
   17    17    18    1
   18    17    19    1
   19    17    20    1
@<TRIPOS>SUBSTRUCTURE
       1 MOL1            1 RESIDUE      1      MOL     
@<SCITEGIC>MOL_PROPERTY
VConf Rank
SciTegic.value.IntegerValue
601

@<SCITEGIC>MOL_PROPERTY
Conf_Id
SciTegic.value.IntegerValue
69

@<SCITEGIC>MOL_PROPERTY
Delta U+W
SciTegic.value.DoubleValue
2.811

@<SCITEGIC>MOL_PROPERTY
U+W
SciTegic.value.DoubleValue
-8.967

@<SCITEGIC>MOL_PROPERTY
Grad RMS
SciTegic.value.DoubleValue
0.000000

@<SCITEGIC>MOL_PROPERTY
U
SciTegic.value.DoubleValue
49.216

@<SCITEGIC>MOL_PROPERTY
W
SciTegic.value.DoubleValue
-58.183

@<SCITEGIC>MOL_PROPERTY
W(PB)
SciTegic.value.DoubleValue
-60.064

@<SCITEGIC>MOL_PROPERTY
W(SA)
SciTegic.value.DoubleValue
1.881

@<SCITEGIC>MOL_PROPERTY
Valence
SciTegic.value.DoubleValue
2.929

@<SCITEGIC>MOL_PROPERTY
Coulomb
SciTegic.value.DoubleValue
46.006

@<SCITEGIC>MOL_PROPERTY
VdW
SciTegic.value.DoubleValue
0.281

@<SCITEGIC>MOL_PROPERTY
VdW6
SciTegic.value.DoubleValue
-4.909

@<SCITEGIC>MOL_PROPERTY
VdW12
SciTegic.value.DoubleValue
5.190

@<SCITEGIC>MOL_PROPERTY
Bond
SciTegic.value.DoubleValue
0.156

@<SCITEGIC>MOL_PROPERTY
Angle
SciTegic.value.DoubleValue
0.974

@<SCITEGIC>MOL_PROPERTY
Pdih
SciTegic.value.DoubleValue
1.799

@<SCITEGIC>MOL_PROPERTY
Idih
SciTegic.value.DoubleValue
0.000

@<SCITEGIC>MOL_PROPERTY
Tether
SciTegic.value.DoubleValue
0.000

@<TRIPOS>MOLECULE
guest-s11_confgen4.mol2 : confsearch ligand conformer 602
          20          19           1
SMALL
USER_CHARGES
 
@<TRIPOS>ATOM
       1    N1      18.982925   19.172468   24.440713 N.4        1 MOL1        -0.5919
       2    H1      19.221362   20.045248   23.962769 H          1 MOL1         0.3682
       3    H2      17.989524   18.992592   24.264352 H          1 MOL1         0.3682
       4    H3      19.079217   19.344169   25.447137 H          1 MOL1         0.3682
       5    C1      19.853688   18.018394   23.981959 C.3        1 MOL1         0.0252
       6    H4      19.539712   17.138077   24.549426 H          1 MOL1         0.0971
       7    H5      20.891573   18.238083   24.246291 H          1 MOL1         0.0971
       8    C2      19.752084   17.704676   22.474400 C.3        1 MOL1        -0.1369
       9    H6      20.066204   16.662581   22.328667 H          1 MOL1         0.0997
      10    H7      18.704018   17.750855   22.149993 H          1 MOL1         0.0997
      11    C3      20.638117   18.598235   21.568712 C.3        1 MOL1        -0.1329
      12    H8      20.575152   18.212472   20.541725 H          1 MOL1         0.0997
      13    H9      21.689986   18.495217   21.869419 H          1 MOL1         0.0997
      14    C4      20.247129   20.094705   21.564601 C.3        1 MOL1        -0.1305
      15    H10     19.170499   20.199275   21.369983 H          1 MOL1         0.0997
      16    H11     20.446491   20.538221   22.548166 H          1 MOL1         0.0997
      17    C5      21.036949   20.885592   20.499849 C.3        1 MOL1        -0.2320
      18    H12     20.836542   20.500611   19.491460 H          1 MOL1         0.1008
      19    H13     20.755147   21.946424   20.516434 H          1 MOL1         0.1008
      20    H14     22.117755   20.821488   20.681561 H          1 MOL1         0.1008
@<TRIPOS>BOND
    1     1     2    1
    2     1     3    1
    3     1     4    1
    4     1     5    1
    5     5     6    1
    6     5     7    1
    7     5     8    1
    8     8     9    1
    9     8    10    1
   10     8    11    1
   11    11    12    1
   12    11    13    1
   13    11    14    1
   14    14    15    1
   15    14    16    1
   16    14    17    1
   17    17    18    1
   18    17    19    1
   19    17    20    1
@<TRIPOS>SUBSTRUCTURE
       1 MOL1            1 RESIDUE      1      MOL     
@<SCITEGIC>MOL_PROPERTY
VConf Rank
SciTegic.value.IntegerValue
602

@<SCITEGIC>MOL_PROPERTY
Conf_Id
SciTegic.value.IntegerValue
26

@<SCITEGIC>MOL_PROPERTY
Delta U+W
SciTegic.value.DoubleValue
2.809

@<SCITEGIC>MOL_PROPERTY
U+W
SciTegic.value.DoubleValue
-8.969

@<SCITEGIC>MOL_PROPERTY
Grad RMS
SciTegic.value.DoubleValue
0.000000

@<SCITEGIC>MOL_PROPERTY
U
SciTegic.value.DoubleValue
49.216

@<SCITEGIC>MOL_PROPERTY
W
SciTegic.value.DoubleValue
-58.185

@<SCITEGIC>MOL_PROPERTY
W(PB)
SciTegic.value.DoubleValue
-60.088

@<SCITEGIC>MOL_PROPERTY
W(SA)
SciTegic.value.DoubleValue
1.903

@<SCITEGIC>MOL_PROPERTY
Valence
SciTegic.value.DoubleValue
2.929

@<SCITEGIC>MOL_PROPERTY
Coulomb
SciTegic.value.DoubleValue
46.006

@<SCITEGIC>MOL_PROPERTY
VdW
SciTegic.value.DoubleValue
0.281

@<SCITEGIC>MOL_PROPERTY
VdW6
SciTegic.value.DoubleValue
-4.909

@<SCITEGIC>MOL_PROPERTY
VdW12
SciTegic.value.DoubleValue
5.190

@<SCITEGIC>MOL_PROPERTY
Bond
SciTegic.value.DoubleValue
0.156

@<SCITEGIC>MOL_PROPERTY
Angle
SciTegic.value.DoubleValue
0.974

@<SCITEGIC>MOL_PROPERTY
Pdih
SciTegic.value.DoubleValue
1.799

@<SCITEGIC>MOL_PROPERTY
Idih
SciTegic.value.DoubleValue
0.000

@<SCITEGIC>MOL_PROPERTY
Tether
SciTegic.value.DoubleValue
0.000

@<TRIPOS>MOLECULE
guest-s11_confgen4.mol2 : confsearch ligand conformer 603
          20          19           1
SMALL
USER_CHARGES
 
@<TRIPOS>ATOM
       1    N1      20.917950   21.453353   22.658554 N.4        1 MOL1        -0.5919
       2    H1      20.555697   21.180255   23.576775 H          1 MOL1         0.3682
       3    H2      21.927969   21.592814   22.760784 H          1 MOL1         0.3682
       4    H3      20.511580   22.367740   22.434791 H          1 MOL1         0.3682
       5    C1      20.596196   20.418560   21.598046 C.3        1 MOL1         0.0252
       6    H4      20.982695   20.787912   20.644261 H          1 MOL1         0.0971
       7    H5      19.508794   20.342279   21.516376 H          1 MOL1         0.0971
       8    C2      21.194523   19.027139   21.888295 C.3        1 MOL1        -0.1369
       9    H6      20.979720   18.365579   21.039337 H          1 MOL1         0.0997
      10    H7      22.288499   19.109064   21.934578 H          1 MOL1         0.0997
      11    C3      20.675334   18.378320   23.198437 C.3        1 MOL1        -0.1329
      12    H8      21.033778   18.959458   24.058671 H          1 MOL1         0.0997
      13    H9      21.128217   17.382798   23.303472 H          1 MOL1         0.0997
      14    C4      19.133802   18.243518   23.290853 C.3        1 MOL1        -0.1305
      15    H10     18.878580   17.795125   24.261243 H          1 MOL1         0.0997
      16    H11     18.664053   19.236390   23.284794 H          1 MOL1         0.0997
      17    C5      18.525879   17.375002   22.166152 C.3        1 MOL1        -0.2320
      18    H12     18.990853   16.380984   22.139889 H          1 MOL1         0.1008
      19    H13     17.448705   17.237344   22.326252 H          1 MOL1         0.1008
      20    H14     18.656045   17.841760   21.181878 H          1 MOL1         0.1008
@<TRIPOS>BOND
    1     1     2    1
    2     1     3    1
    3     1     4    1
    4     1     5    1
    5     5     6    1
    6     5     7    1
    7     5     8    1
    8     8     9    1
    9     8    10    1
   10     8    11    1
   11    11    12    1
   12    11    13    1
   13    11    14    1
   14    14    15    1
   15    14    16    1
   16    14    17    1
   17    17    18    1
   18    17    19    1
   19    17    20    1
@<TRIPOS>SUBSTRUCTURE
       1 MOL1            1 RESIDUE      1      MOL     
@<SCITEGIC>MOL_PROPERTY
VConf Rank
SciTegic.value.IntegerValue
603

@<SCITEGIC>MOL_PROPERTY
Conf_Id
SciTegic.value.IntegerValue
2

@<SCITEGIC>MOL_PROPERTY
Delta U+W
SciTegic.value.DoubleValue
0.994

@<SCITEGIC>MOL_PROPERTY
U+W
SciTegic.value.DoubleValue
-10.784

@<SCITEGIC>MOL_PROPERTY
Grad RMS
SciTegic.value.DoubleValue
0.000000

@<SCITEGIC>MOL_PROPERTY
U
SciTegic.value.DoubleValue
47.562

@<SCITEGIC>MOL_PROPERTY
W
SciTegic.value.DoubleValue
-58.346

@<SCITEGIC>MOL_PROPERTY
W(PB)
SciTegic.value.DoubleValue
-60.221

@<SCITEGIC>MOL_PROPERTY
W(SA)
SciTegic.value.DoubleValue
1.875

@<SCITEGIC>MOL_PROPERTY
Valence
SciTegic.value.DoubleValue
2.149

@<SCITEGIC>MOL_PROPERTY
Coulomb
SciTegic.value.DoubleValue
45.034

@<SCITEGIC>MOL_PROPERTY
VdW
SciTegic.value.DoubleValue
0.378

@<SCITEGIC>MOL_PROPERTY
VdW6
SciTegic.value.DoubleValue
-5.599

@<SCITEGIC>MOL_PROPERTY
VdW12
SciTegic.value.DoubleValue
5.977

@<SCITEGIC>MOL_PROPERTY
Bond
SciTegic.value.DoubleValue
0.185

@<SCITEGIC>MOL_PROPERTY
Angle
SciTegic.value.DoubleValue
0.935

@<SCITEGIC>MOL_PROPERTY
Pdih
SciTegic.value.DoubleValue
1.028

@<SCITEGIC>MOL_PROPERTY
Idih
SciTegic.value.DoubleValue
0.000

@<SCITEGIC>MOL_PROPERTY
Tether
SciTegic.value.DoubleValue
0.000

@<TRIPOS>MOLECULE
guest-s11_confgen4.mol2 : confsearch ligand conformer 604
          20          19           1
SMALL
USER_CHARGES
 
@<TRIPOS>ATOM
       1    N1      22.276182   20.210791   22.857785 N.4        1 MOL1        -0.5919
       2    H1      23.024404   20.059694   22.174138 H          1 MOL1         0.3682
       3    H2      21.634754   20.901222   22.456767 H          1 MOL1         0.3682
       4    H3      22.707306   20.643561   23.681284 H          1 MOL1         0.3682
       5    C1      21.563060   18.919297   23.207780 C.3        1 MOL1         0.0252
       6    H4      20.803791   19.143710   23.961493 H          1 MOL1         0.0971
       7    H5      22.297157   18.244590   23.656533 H          1 MOL1         0.0971
       8    C2      20.904870   18.227136   21.997001 C.3        1 MOL1        -0.1369
       9    H6      21.680453   17.975733   21.261538 H          1 MOL1         0.0997
      10    H7      20.481238   17.269072   22.324389 H          1 MOL1         0.0997
      11    C3      19.803524   19.075118   21.307830 C.3        1 MOL1        -0.1329
      12    H8      19.371945   18.491145   20.483261 H          1 MOL1         0.0997
      13    H9      20.262903   19.955651   20.838960 H          1 MOL1         0.0997
      14    C4      18.661668   19.543974   22.245580 C.3        1 MOL1        -0.1305
      15    H10     19.057925   20.210034   23.023937 H          1 MOL1         0.0997
      16    H11     17.954761   20.149810   21.661548 H          1 MOL1         0.0997
      17    C5      17.891147   18.377151   22.904110 C.3        1 MOL1        -0.2320
      18    H12     18.531103   17.808056   23.589815 H          1 MOL1         0.1008
      19    H13     17.040864   18.757156   23.485058 H          1 MOL1         0.1008
      20    H14     17.498153   17.686374   22.146917 H          1 MOL1         0.1008
@<TRIPOS>BOND
    1     1     2    1
    2     1     3    1
    3     1     4    1
    4     1     5    1
    5     5     6    1
    6     5     7    1
    7     5     8    1
    8     8     9    1
    9     8    10    1
   10     8    11    1
   11    11    12    1
   12    11    13    1
   13    11    14    1
   14    14    15    1
   15    14    16    1
   16    14    17    1
   17    17    18    1
   18    17    19    1
   19    17    20    1
@<TRIPOS>SUBSTRUCTURE
       1 MOL1            1 RESIDUE      1      MOL     
@<SCITEGIC>MOL_PROPERTY
VConf Rank
SciTegic.value.IntegerValue
604

@<SCITEGIC>MOL_PROPERTY
Conf_Id
SciTegic.value.IntegerValue
1

@<SCITEGIC>MOL_PROPERTY
Delta U+W
SciTegic.value.DoubleValue
1.032

@<SCITEGIC>MOL_PROPERTY
U+W
SciTegic.value.DoubleValue
-10.746

@<SCITEGIC>MOL_PROPERTY
Grad RMS
SciTegic.value.DoubleValue
0.000000

@<SCITEGIC>MOL_PROPERTY
U
SciTegic.value.DoubleValue
47.562

@<SCITEGIC>MOL_PROPERTY
W
SciTegic.value.DoubleValue
-58.308

@<SCITEGIC>MOL_PROPERTY
W(PB)
SciTegic.value.DoubleValue
-60.184

@<SCITEGIC>MOL_PROPERTY
W(SA)
SciTegic.value.DoubleValue
1.877

@<SCITEGIC>MOL_PROPERTY
Valence
SciTegic.value.DoubleValue
2.149

@<SCITEGIC>MOL_PROPERTY
Coulomb
SciTegic.value.DoubleValue
45.035

@<SCITEGIC>MOL_PROPERTY
VdW
SciTegic.value.DoubleValue
0.378

@<SCITEGIC>MOL_PROPERTY
VdW6
SciTegic.value.DoubleValue
-5.599

@<SCITEGIC>MOL_PROPERTY
VdW12
SciTegic.value.DoubleValue
5.978

@<SCITEGIC>MOL_PROPERTY
Bond
SciTegic.value.DoubleValue
0.185

@<SCITEGIC>MOL_PROPERTY
Angle
SciTegic.value.DoubleValue
0.935

@<SCITEGIC>MOL_PROPERTY
Pdih
SciTegic.value.DoubleValue
1.028

@<SCITEGIC>MOL_PROPERTY
Idih
SciTegic.value.DoubleValue
0.000

@<SCITEGIC>MOL_PROPERTY
Tether
SciTegic.value.DoubleValue
0.000

@<TRIPOS>MOLECULE
guest-s11_confgen4.mol2 : confsearch ligand conformer 605
          20          19           1
SMALL
USER_CHARGES
 
@<TRIPOS>ATOM
       1    N1      21.491698   18.207740   20.739818 N.4        1 MOL1        -0.5919
       2    H1      22.293347   17.611062   20.966589 H          1 MOL1         0.3682
       3    H2      20.648246   17.638661   20.855677 H          1 MOL1         0.3682
       4    H3      21.563441   18.437097   19.743027 H          1 MOL1         0.3682
       5    C1      21.453643   19.454045   21.602970 C.3        1 MOL1         0.0252
       6    H4      20.598531   20.054552   21.288811 H          1 MOL1         0.0971
       7    H5      22.361372   20.026431   21.393378 H          1 MOL1         0.0971
       8    C2      21.378114   19.162063   23.116825 C.3        1 MOL1        -0.1369
       9    H6      22.247971   18.549708   23.389202 H          1 MOL1         0.0997
      10    H7      21.486187   20.101874   23.674226 H          1 MOL1         0.0997
      11    C3      20.086878   18.431268   23.573956 C.3        1 MOL1        -0.1329
      12    H8      20.308486   17.916255   24.518983 H          1 MOL1         0.0997
      13    H9      19.819268   17.637465   22.864742 H          1 MOL1         0.0997
      14    C4      18.864766   19.352061   23.824186 C.3        1 MOL1        -0.1305
      15    H10     18.048178   18.737944   24.229148 H          1 MOL1         0.0997
      16    H11     19.107324   20.085850   24.605532 H          1 MOL1         0.0997
      17    C5      18.347564   20.089773   22.569510 C.3        1 MOL1        -0.2320
      18    H12     18.203541   19.397151   21.730289 H          1 MOL1         0.1008
      19    H13     17.381883   20.567912   22.778728 H          1 MOL1         0.1008
      20    H14     19.038850   20.881849   22.258392 H          1 MOL1         0.1008
@<TRIPOS>BOND
    1     1     2    1
    2     1     3    1
    3     1     4    1
    4     1     5    1
    5     5     6    1
    6     5     7    1
    7     5     8    1
    8     8     9    1
    9     8    10    1
   10     8    11    1
   11    11    12    1
   12    11    13    1
   13    11    14    1
   14    14    15    1
   15    14    16    1
   16    14    17    1
   17    17    18    1
   18    17    19    1
   19    17    20    1
@<TRIPOS>SUBSTRUCTURE
       1 MOL1            1 RESIDUE      1      MOL     
@<SCITEGIC>MOL_PROPERTY
VConf Rank
SciTegic.value.IntegerValue
605

@<SCITEGIC>MOL_PROPERTY
Conf_Id
SciTegic.value.IntegerValue
80

@<SCITEGIC>MOL_PROPERTY
Delta U+W
SciTegic.value.DoubleValue
2.920

@<SCITEGIC>MOL_PROPERTY
U+W
SciTegic.value.DoubleValue
-8.857

@<SCITEGIC>MOL_PROPERTY
Grad RMS
SciTegic.value.DoubleValue
0.000000

@<SCITEGIC>MOL_PROPERTY
U
SciTegic.value.DoubleValue
49.434

@<SCITEGIC>MOL_PROPERTY
W
SciTegic.value.DoubleValue
-58.292

@<SCITEGIC>MOL_PROPERTY
W(PB)
SciTegic.value.DoubleValue
-60.170

@<SCITEGIC>MOL_PROPERTY
W(SA)
SciTegic.value.DoubleValue
1.879

@<SCITEGIC>MOL_PROPERTY
Valence
SciTegic.value.DoubleValue
3.798

@<SCITEGIC>MOL_PROPERTY
Coulomb
SciTegic.value.DoubleValue
45.253

@<SCITEGIC>MOL_PROPERTY
VdW
SciTegic.value.DoubleValue
0.384

@<SCITEGIC>MOL_PROPERTY
VdW6
SciTegic.value.DoubleValue
-5.595

@<SCITEGIC>MOL_PROPERTY
VdW12
SciTegic.value.DoubleValue
5.979

@<SCITEGIC>MOL_PROPERTY
Bond
SciTegic.value.DoubleValue
0.198

@<SCITEGIC>MOL_PROPERTY
Angle
SciTegic.value.DoubleValue
1.368

@<SCITEGIC>MOL_PROPERTY
Pdih
SciTegic.value.DoubleValue
2.231

@<SCITEGIC>MOL_PROPERTY
Idih
SciTegic.value.DoubleValue
0.000

@<SCITEGIC>MOL_PROPERTY
Tether
SciTegic.value.DoubleValue
0.000

@<TRIPOS>MOLECULE
guest-s11_confgen4.mol2 : confsearch ligand conformer 606
          20          19           1
SMALL
USER_CHARGES
 
@<TRIPOS>ATOM
       1    N1      17.908639   18.976863   22.084486 N.4        1 MOL1        -0.5919
       2    H1      17.539732   19.246386   21.167232 H          1 MOL1         0.3682
       3    H2      17.167367   18.453294   22.561705 H          1 MOL1         0.3682
       4    H3      18.055909   19.839121   22.616942 H          1 MOL1         0.3682
       5    C1      19.183423   18.164410   21.963646 C.3        1 MOL1         0.0252
       6    H4      18.937513   17.246034   21.423612 H          1 MOL1         0.0971
       7    H5      19.501757   17.886803   22.969685 H          1 MOL1         0.0971
       8    C2      20.322132   18.897297   21.222737 C.3        1 MOL1        -0.1369
       9    H6      21.157398   18.202931   21.062092 H          1 MOL1         0.0997
      10    H7      19.959014   19.166775   20.222064 H          1 MOL1         0.0997
      11    C3      20.839146   20.178502   21.930928 C.3        1 MOL1        -0.1329
      12    H8      20.001921   20.764073   22.332027 H          1 MOL1         0.0997
      13    H9      21.305288   20.818941   21.169368 H          1 MOL1         0.0997
      14    C4      21.894765   19.935161   23.040206 C.3        1 MOL1        -0.1305
      15    H10     22.773541   19.433046   22.611935 H          1 MOL1         0.0997
      16    H11     22.249267   20.911901   23.398334 H          1 MOL1         0.0997
      17    C5      21.380432   19.126144   24.251354 C.3        1 MOL1        -0.2320
      18    H12     21.227308   18.072008   23.991738 H          1 MOL1         0.1008
      19    H13     22.113175   19.154278   25.068193 H          1 MOL1         0.1008
      20    H14     20.436801   19.536279   24.633596 H          1 MOL1         0.1008
@<TRIPOS>BOND
    1     1     2    1
    2     1     3    1
    3     1     4    1
    4     1     5    1
    5     5     6    1
    6     5     7    1
    7     5     8    1
    8     8     9    1
    9     8    10    1
   10     8    11    1
   11    11    12    1
   12    11    13    1
   13    11    14    1
   14    14    15    1
   15    14    16    1
   16    14    17    1
   17    17    18    1
   18    17    19    1
   19    17    20    1
@<TRIPOS>SUBSTRUCTURE
       1 MOL1            1 RESIDUE      1      MOL     
@<SCITEGIC>MOL_PROPERTY
VConf Rank
SciTegic.value.IntegerValue
606

@<SCITEGIC>MOL_PROPERTY
Conf_Id
SciTegic.value.IntegerValue
65

@<SCITEGIC>MOL_PROPERTY
Delta U+W
SciTegic.value.DoubleValue
2.949

@<SCITEGIC>MOL_PROPERTY
U+W
SciTegic.value.DoubleValue
-8.829

@<SCITEGIC>MOL_PROPERTY
Grad RMS
SciTegic.value.DoubleValue
0.000000

@<SCITEGIC>MOL_PROPERTY
U
SciTegic.value.DoubleValue
49.435

@<SCITEGIC>MOL_PROPERTY
W
SciTegic.value.DoubleValue
-58.263

@<SCITEGIC>MOL_PROPERTY
W(PB)
SciTegic.value.DoubleValue
-60.125

@<SCITEGIC>MOL_PROPERTY
W(SA)
SciTegic.value.DoubleValue
1.862

@<SCITEGIC>MOL_PROPERTY
Valence
SciTegic.value.DoubleValue
3.797

@<SCITEGIC>MOL_PROPERTY
Coulomb
SciTegic.value.DoubleValue
45.253

@<SCITEGIC>MOL_PROPERTY
VdW
SciTegic.value.DoubleValue
0.384

@<SCITEGIC>MOL_PROPERTY
VdW6
SciTegic.value.DoubleValue
-5.596

@<SCITEGIC>MOL_PROPERTY
VdW12
SciTegic.value.DoubleValue
5.980

@<SCITEGIC>MOL_PROPERTY
Bond
SciTegic.value.DoubleValue
0.198

@<SCITEGIC>MOL_PROPERTY
Angle
SciTegic.value.DoubleValue
1.369

@<SCITEGIC>MOL_PROPERTY
Pdih
SciTegic.value.DoubleValue
2.230

@<SCITEGIC>MOL_PROPERTY
Idih
SciTegic.value.DoubleValue
0.000

@<SCITEGIC>MOL_PROPERTY
Tether
SciTegic.value.DoubleValue
0.000

@<TRIPOS>MOLECULE
guest-s11_confgen4.mol2 : confsearch ligand conformer 607
          20          19           1
SMALL
USER_CHARGES
 
@<TRIPOS>ATOM
       1    N1      18.245252   18.831835   22.953763 N.4        1 MOL1        -0.5919
       2    H1      17.740969   18.432204   23.752309 H          1 MOL1         0.3682
       3    H2      18.727778   19.672283   23.286241 H          1 MOL1         0.3682
       4    H3      17.538410   19.133968   22.275902 H          1 MOL1         0.3682
       5    C1      19.218015   17.839072   22.347372 C.3        1 MOL1         0.0252
       6    H4      18.631024   16.977754   22.017080 H          1 MOL1         0.0971
       7    H5      19.906274   17.501580   23.126858 H          1 MOL1         0.0971
       8    C2      20.014838   18.394414   21.149424 C.3        1 MOL1        -0.1369
       9    H6      20.347804   17.539950   20.545409 H          1 MOL1         0.0997
      10    H7      19.349905   18.978191   20.499134 H          1 MOL1         0.0997
      11    C3      21.269816   19.229612   21.520011 C.3        1 MOL1        -0.1329
      12    H8      21.765689   19.511206   20.580681 H          1 MOL1         0.0997
      13    H9      21.993597   18.600181   22.056130 H          1 MOL1         0.0997
      14    C4      20.994054   20.525805   22.323975 C.3        1 MOL1        -0.1305
      15    H10     21.707663   21.296732   22.000416 H          1 MOL1         0.0997
      16    H11     19.999644   20.924192   22.081691 H          1 MOL1         0.0997
      17    C5      21.159166   20.340386   23.851122 C.3        1 MOL1        -0.2320
      18    H12     20.530362   19.535425   24.246393 H          1 MOL1         0.1008
      19    H13     22.200246   20.096251   24.099859 H          1 MOL1         0.1008
      20    H14     20.900921   21.265177   24.383336 H          1 MOL1         0.1008
@<TRIPOS>BOND
    1     1     2    1
    2     1     3    1
    3     1     4    1
    4     1     5    1
    5     5     6    1
    6     5     7    1
    7     5     8    1
    8     8     9    1
    9     8    10    1
   10     8    11    1
   11    11    12    1
   12    11    13    1
   13    11    14    1
   14    14    15    1
   15    14    16    1
   16    14    17    1
   17    17    18    1
   18    17    19    1
   19    17    20    1
@<TRIPOS>SUBSTRUCTURE
       1 MOL1            1 RESIDUE      1      MOL     
@<SCITEGIC>MOL_PROPERTY
VConf Rank
SciTegic.value.IntegerValue
607

@<SCITEGIC>MOL_PROPERTY
Conf_Id
SciTegic.value.IntegerValue
77

@<SCITEGIC>MOL_PROPERTY
Delta U+W
SciTegic.value.DoubleValue
5.366

@<SCITEGIC>MOL_PROPERTY
U+W
SciTegic.value.DoubleValue
-6.412

@<SCITEGIC>MOL_PROPERTY
Grad RMS
SciTegic.value.DoubleValue
0.000000

@<SCITEGIC>MOL_PROPERTY
U
SciTegic.value.DoubleValue
51.542

@<SCITEGIC>MOL_PROPERTY
W
SciTegic.value.DoubleValue
-57.954

@<SCITEGIC>MOL_PROPERTY
W(PB)
SciTegic.value.DoubleValue
-59.811

@<SCITEGIC>MOL_PROPERTY
W(SA)
SciTegic.value.DoubleValue
1.857

@<SCITEGIC>MOL_PROPERTY
Valence
SciTegic.value.DoubleValue
5.347

@<SCITEGIC>MOL_PROPERTY
Coulomb
SciTegic.value.DoubleValue
45.870

@<SCITEGIC>MOL_PROPERTY
VdW
SciTegic.value.DoubleValue
0.325

@<SCITEGIC>MOL_PROPERTY
VdW6
SciTegic.value.DoubleValue
-6.161

@<SCITEGIC>MOL_PROPERTY
VdW12
SciTegic.value.DoubleValue
6.486

@<SCITEGIC>MOL_PROPERTY
Bond
SciTegic.value.DoubleValue
0.201

@<SCITEGIC>MOL_PROPERTY
Angle
SciTegic.value.DoubleValue
1.484

@<SCITEGIC>MOL_PROPERTY
Pdih
SciTegic.value.DoubleValue
3.662

@<SCITEGIC>MOL_PROPERTY
Idih
SciTegic.value.DoubleValue
0.000

@<SCITEGIC>MOL_PROPERTY
Tether
SciTegic.value.DoubleValue
0.000

@<TRIPOS>MOLECULE
guest-s11_confgen4.mol2 : confsearch ligand conformer 608
          20          19           1
SMALL
USER_CHARGES
 
@<TRIPOS>ATOM
       1    N1      21.659626   19.789459   23.551818 N.4        1 MOL1        -0.5919
       2    H1      22.028303   20.688641   23.226309 H          1 MOL1         0.3682
       3    H2      20.672550   19.931663   23.786736 H          1 MOL1         0.3682
       4    H3      22.151988   19.562882   24.422406 H          1 MOL1         0.3682
       5    C1      21.828740   18.701517   22.509060 C.3        1 MOL1         0.0252
       6    H4      21.481006   17.754600   22.930522 H          1 MOL1         0.0971
       7    H5      22.900482   18.611786   22.311987 H          1 MOL1         0.0971
       8    C2      21.095064   18.985446   21.182593 C.3        1 MOL1        -0.1369
       9    H6      21.227245   20.039024   20.902752 H          1 MOL1         0.0997
      10    H7      21.592041   18.403204   20.395306 H          1 MOL1         0.0997
      11    C3      19.588252   18.612423   21.167292 C.3        1 MOL1        -0.1329
      12    H8      19.468928   17.530027   21.314417 H          1 MOL1         0.0997
      13    H9      19.210593   18.813913   20.155215 H          1 MOL1         0.0997
      14    C4      18.699720   19.387110   22.173716 C.3        1 MOL1        -0.1305
      15    H10     19.117888   20.384018   22.367555 H          1 MOL1         0.0997
      16    H11     17.718604   19.563605   21.710551 H          1 MOL1         0.0997
      17    C5      18.466469   18.617938   23.495755 C.3        1 MOL1        -0.2320
      18    H12     17.880573   19.224836   24.198310 H          1 MOL1         0.1008
      19    H13     17.904434   17.693269   23.310208 H          1 MOL1         0.1008
      20    H14     19.403368   18.338512   23.989450 H          1 MOL1         0.1008
@<TRIPOS>BOND
    1     1     2    1
    2     1     3    1
    3     1     4    1
    4     1     5    1
    5     5     6    1
    6     5     7    1
    7     5     8    1
    8     8     9    1
    9     8    10    1
   10     8    11    1
   11    11    12    1
   12    11    13    1
   13    11    14    1
   14    14    15    1
   15    14    16    1
   16    14    17    1
   17    17    18    1
   18    17    19    1
   19    17    20    1
@<TRIPOS>SUBSTRUCTURE
       1 MOL1            1 RESIDUE      1      MOL     
@<SCITEGIC>MOL_PROPERTY
VConf Rank
SciTegic.value.IntegerValue
608

@<SCITEGIC>MOL_PROPERTY
Conf_Id
SciTegic.value.IntegerValue
67

@<SCITEGIC>MOL_PROPERTY
Delta U+W
SciTegic.value.DoubleValue
5.353

@<SCITEGIC>MOL_PROPERTY
U+W
SciTegic.value.DoubleValue
-6.425

@<SCITEGIC>MOL_PROPERTY
Grad RMS
SciTegic.value.DoubleValue
0.000000

@<SCITEGIC>MOL_PROPERTY
U
SciTegic.value.DoubleValue
51.541

@<SCITEGIC>MOL_PROPERTY
W
SciTegic.value.DoubleValue
-57.966

@<SCITEGIC>MOL_PROPERTY
W(PB)
SciTegic.value.DoubleValue
-59.821

@<SCITEGIC>MOL_PROPERTY
W(SA)
SciTegic.value.DoubleValue
1.855

@<SCITEGIC>MOL_PROPERTY
Valence
SciTegic.value.DoubleValue
5.347

@<SCITEGIC>MOL_PROPERTY
Coulomb
SciTegic.value.DoubleValue
45.870

@<SCITEGIC>MOL_PROPERTY
VdW
SciTegic.value.DoubleValue
0.325

@<SCITEGIC>MOL_PROPERTY
VdW6
SciTegic.value.DoubleValue
-6.161

@<SCITEGIC>MOL_PROPERTY
VdW12
SciTegic.value.DoubleValue
6.486

@<SCITEGIC>MOL_PROPERTY
Bond
SciTegic.value.DoubleValue
0.201

@<SCITEGIC>MOL_PROPERTY
Angle
SciTegic.value.DoubleValue
1.485

@<SCITEGIC>MOL_PROPERTY
Pdih
SciTegic.value.DoubleValue
3.662

@<SCITEGIC>MOL_PROPERTY
Idih
SciTegic.value.DoubleValue
0.000

@<SCITEGIC>MOL_PROPERTY
Tether
SciTegic.value.DoubleValue
0.000

@<TRIPOS>MOLECULE
guest-s11_confgen4.mol2 : confsearch ligand conformer 609
          20          19           1
SMALL
USER_CHARGES
 
@<TRIPOS>ATOM
       1    N1      21.364720   19.583137   25.407327 N.4        1 MOL1        -0.5919
       2    H1      22.264078   19.112813   25.264716 H          1 MOL1         0.3682
       3    H2      21.539480   20.374152   26.036099 H          1 MOL1         0.3682
       4    H3      20.759771   18.929098   25.913940 H          1 MOL1         0.3682
       5    C1      20.745283   20.030312   24.098579 C.3        1 MOL1         0.0252
       6    H4      21.426740   20.745220   23.629495 H          1 MOL1         0.0971
       7    H5      19.809531   20.547545   24.327384 H          1 MOL1         0.0971
       8    C2      20.469898   18.865697   23.130539 C.3        1 MOL1        -0.1369
       9    H6      21.409632   18.339392   22.916130 H          1 MOL1         0.0997
      10    H7      19.797990   18.142383   23.611605 H          1 MOL1         0.0997
      11    C3      19.839564   19.363616   21.810885 C.3        1 MOL1        -0.1329
      12    H8      20.512025   20.090979   21.334935 H          1 MOL1         0.0997
      13    H9      18.902268   19.894135   22.029559 H          1 MOL1         0.0997
      14    C4      19.558656   18.202519   20.830843 C.3        1 MOL1        -0.1305
      15    H10     20.494102   17.670338   20.607748 H          1 MOL1         0.0997
      16    H11     18.884502   17.473570   21.302222 H          1 MOL1         0.0997
      17    C5      18.929058   18.704701   19.513878 C.3        1 MOL1        -0.2320
      18    H12     19.595766   19.410257   19.001135 H          1 MOL1         0.1008
      19    H13     18.737191   17.866496   18.831496 H          1 MOL1         0.1008
      20    H14     17.973537   19.211828   19.701003 H          1 MOL1         0.1008
@<TRIPOS>BOND
    1     1     2    1
    2     1     3    1
    3     1     4    1
    4     1     5    1
    5     5     6    1
    6     5     7    1
    7     5     8    1
    8     8     9    1
    9     8    10    1
   10     8    11    1
   11    11    12    1
   12    11    13    1
   13    11    14    1
   14    14    15    1
   15    14    16    1
   16    14    17    1
   17    17    18    1
   18    17    19    1
   19    17    20    1
@<TRIPOS>SUBSTRUCTURE
       1 MOL1            1 RESIDUE      1      MOL     
@<SCITEGIC>MOL_PROPERTY
VConf Rank
SciTegic.value.IntegerValue
609

@<SCITEGIC>MOL_PROPERTY
Conf_Id
SciTegic.value.IntegerValue
72

@<SCITEGIC>MOL_PROPERTY
Delta U+W
SciTegic.value.DoubleValue
0.000

@<SCITEGIC>MOL_PROPERTY
U+W
SciTegic.value.DoubleValue
-11.778

@<SCITEGIC>MOL_PROPERTY
Grad RMS
SciTegic.value.DoubleValue
0.000000

@<SCITEGIC>MOL_PROPERTY
U
SciTegic.value.DoubleValue
45.772

@<SCITEGIC>MOL_PROPERTY
W
SciTegic.value.DoubleValue
-57.550

@<SCITEGIC>MOL_PROPERTY
W(PB)
SciTegic.value.DoubleValue
-59.511

@<SCITEGIC>MOL_PROPERTY
W(SA)
SciTegic.value.DoubleValue
1.961

@<SCITEGIC>MOL_PROPERTY
Valence
SciTegic.value.DoubleValue
1.299

@<SCITEGIC>MOL_PROPERTY
Coulomb
SciTegic.value.DoubleValue
44.177

@<SCITEGIC>MOL_PROPERTY
VdW
SciTegic.value.DoubleValue
0.297

@<SCITEGIC>MOL_PROPERTY
VdW6
SciTegic.value.DoubleValue
-3.490

@<SCITEGIC>MOL_PROPERTY
VdW12
SciTegic.value.DoubleValue
3.786

@<SCITEGIC>MOL_PROPERTY
Bond
SciTegic.value.DoubleValue
0.096

@<SCITEGIC>MOL_PROPERTY
Angle
SciTegic.value.DoubleValue
0.381

@<SCITEGIC>MOL_PROPERTY
Pdih
SciTegic.value.DoubleValue
0.822

@<SCITEGIC>MOL_PROPERTY
Idih
SciTegic.value.DoubleValue
0.000

@<SCITEGIC>MOL_PROPERTY
Tether
SciTegic.value.DoubleValue
0.000

@<TRIPOS>MOLECULE
guest-s11_confgen4.mol2 : confsearch ligand conformer 610
          20          19           1
SMALL
USER_CHARGES
 
@<TRIPOS>ATOM
       1    N1      20.864314   16.274218   22.414416 N.4        1 MOL1        -0.5919
       2    H1      20.127731   16.040121   23.087454 H          1 MOL1         0.3682
       3    H2      20.499121   16.059498   21.481199 H          1 MOL1         0.3682
       4    H3      21.640511   15.626418   22.586045 H          1 MOL1         0.3682
       5    C1      21.301371   17.720434   22.532791 C.3        1 MOL1         0.0252
       6    H4      22.105075   17.890106   21.811150 H          1 MOL1         0.0971
       7    H5      21.705327   17.869861   23.537777 H          1 MOL1         0.0971
       8    C2      20.158948   18.720590   22.280154 C.3        1 MOL1        -0.1369
       9    H6      19.745774   18.556442   21.276085 H          1 MOL1         0.0997
      10    H7      19.351191   18.529669   22.997889 H          1 MOL1         0.0997
      11    C3      20.650053   20.181894   22.408744 C.3        1 MOL1        -0.1329
      12    H8      21.507628   20.331407   21.737959 H          1 MOL1         0.0997
      13    H9      21.021025   20.359405   23.427791 H          1 MOL1         0.0997
      14    C4      19.565476   21.230990   22.062681 C.3        1 MOL1        -0.1305
      15    H10     20.023746   22.229851   22.077021 H          1 MOL1         0.0997
      16    H11     19.208581   21.071986   21.035442 H          1 MOL1         0.0997
      17    C5      18.365739   21.219555   23.037376 C.3        1 MOL1        -0.2320
      18    H12     18.698636   21.348599   24.075423 H          1 MOL1         0.1008
      19    H13     17.673014   22.038297   22.803396 H          1 MOL1         0.1008
      20    H14     17.800768   20.281555   22.971144 H          1 MOL1         0.1008
@<TRIPOS>BOND
    1     1     2    1
    2     1     3    1
    3     1     4    1
    4     1     5    1
    5     5     6    1
    6     5     7    1
    7     5     8    1
    8     8     9    1
    9     8    10    1
   10     8    11    1
   11    11    12    1
   12    11    13    1
   13    11    14    1
   14    14    15    1
   15    14    16    1
   16    14    17    1
   17    17    18    1
   18    17    19    1
   19    17    20    1
@<TRIPOS>SUBSTRUCTURE
       1 MOL1            1 RESIDUE      1      MOL     
@<SCITEGIC>MOL_PROPERTY
VConf Rank
SciTegic.value.IntegerValue
610

@<SCITEGIC>MOL_PROPERTY
Conf_Id
SciTegic.value.IntegerValue
42

@<SCITEGIC>MOL_PROPERTY
Delta U+W
SciTegic.value.DoubleValue
0.508

@<SCITEGIC>MOL_PROPERTY
U+W
SciTegic.value.DoubleValue
-11.270

@<SCITEGIC>MOL_PROPERTY
Grad RMS
SciTegic.value.DoubleValue
0.000000

@<SCITEGIC>MOL_PROPERTY
U
SciTegic.value.DoubleValue
46.486

@<SCITEGIC>MOL_PROPERTY
W
SciTegic.value.DoubleValue
-57.756

@<SCITEGIC>MOL_PROPERTY
W(PB)
SciTegic.value.DoubleValue
-59.705

@<SCITEGIC>MOL_PROPERTY
W(SA)
SciTegic.value.DoubleValue
1.949

@<SCITEGIC>MOL_PROPERTY
Valence
SciTegic.value.DoubleValue
1.806

@<SCITEGIC>MOL_PROPERTY
Coulomb
SciTegic.value.DoubleValue
44.248

@<SCITEGIC>MOL_PROPERTY
VdW
SciTegic.value.DoubleValue
0.433

@<SCITEGIC>MOL_PROPERTY
VdW6
SciTegic.value.DoubleValue
-4.089

@<SCITEGIC>MOL_PROPERTY
VdW12
SciTegic.value.DoubleValue
4.522

@<SCITEGIC>MOL_PROPERTY
Bond
SciTegic.value.DoubleValue
0.131

@<SCITEGIC>MOL_PROPERTY
Angle
SciTegic.value.DoubleValue
0.628

@<SCITEGIC>MOL_PROPERTY
Pdih
SciTegic.value.DoubleValue
1.047

@<SCITEGIC>MOL_PROPERTY
Idih
SciTegic.value.DoubleValue
0.000

@<SCITEGIC>MOL_PROPERTY
Tether
SciTegic.value.DoubleValue
0.000

@<TRIPOS>MOLECULE
guest-s11_confgen4.mol2 : confsearch ligand conformer 611
          20          19           1
SMALL
USER_CHARGES
 
@<TRIPOS>ATOM
       1    N1      19.856386   17.302024   20.062359 N.4        1 MOL1        -0.5919
       2    H1      19.015745   16.798845   20.363185 H          1 MOL1         0.3682
       3    H2      19.545053   18.096768   19.495095 H          1 MOL1         0.3682
       4    H3      20.370840   16.673502   19.436356 H          1 MOL1         0.3682
       5    C1      20.704120   17.742872   21.238616 C.3        1 MOL1         0.0252
       6    H4      21.593254   18.243107   20.845281 H          1 MOL1         0.0971
       7    H5      21.024524   16.847351   21.777948 H          1 MOL1         0.0971
       8    C2      19.961024   18.688052   22.199716 C.3        1 MOL1        -0.1369
       9    H6      19.628888   19.574182   21.644265 H          1 MOL1         0.0997
      10    H7      19.060572   18.187603   22.579912 H          1 MOL1         0.0997
      11    C3      20.861870   19.109974   23.384450 C.3        1 MOL1        -0.1329
      12    H8      21.740395   19.651503   23.006922 H          1 MOL1         0.0997
      13    H9      21.245621   18.207826   23.881045 H          1 MOL1         0.0997
      14    C4      20.131449   19.978656   24.437325 C.3        1 MOL1        -0.1305
      15    H10     19.265505   19.431159   24.835151 H          1 MOL1         0.0997
      16    H11     20.807164   20.143932   25.288225 H          1 MOL1         0.0997
      17    C5      19.673144   21.350432   23.891688 C.3        1 MOL1        -0.2320
      18    H12     18.903478   21.240343   23.117790 H          1 MOL1         0.1008
      19    H13     19.244878   21.960616   24.697427 H          1 MOL1         0.1008
      20    H14     20.516428   21.906664   23.462161 H          1 MOL1         0.1008
@<TRIPOS>BOND
    1     1     2    1
    2     1     3    1
    3     1     4    1
    4     1     5    1
    5     5     6    1
    6     5     7    1
    7     5     8    1
    8     8     9    1
    9     8    10    1
   10     8    11    1
   11    11    12    1
   12    11    13    1
   13    11    14    1
   14    14    15    1
   15    14    16    1
   16    14    17    1
   17    17    18    1
   18    17    19    1
   19    17    20    1
@<TRIPOS>SUBSTRUCTURE
       1 MOL1            1 RESIDUE      1      MOL     
@<SCITEGIC>MOL_PROPERTY
VConf Rank
SciTegic.value.IntegerValue
611

@<SCITEGIC>MOL_PROPERTY
Conf_Id
SciTegic.value.IntegerValue
41

@<SCITEGIC>MOL_PROPERTY
Delta U+W
SciTegic.value.DoubleValue
0.515

@<SCITEGIC>MOL_PROPERTY
U+W
SciTegic.value.DoubleValue
-11.263

@<SCITEGIC>MOL_PROPERTY
Grad RMS
SciTegic.value.DoubleValue
0.000000

@<SCITEGIC>MOL_PROPERTY
U
SciTegic.value.DoubleValue
46.486

@<SCITEGIC>MOL_PROPERTY
W
SciTegic.value.DoubleValue
-57.749

@<SCITEGIC>MOL_PROPERTY
W(PB)
SciTegic.value.DoubleValue
-59.685

@<SCITEGIC>MOL_PROPERTY
W(SA)
SciTegic.value.DoubleValue
1.936

@<SCITEGIC>MOL_PROPERTY
Valence
SciTegic.value.DoubleValue
1.806

@<SCITEGIC>MOL_PROPERTY
Coulomb
SciTegic.value.DoubleValue
44.248

@<SCITEGIC>MOL_PROPERTY
VdW
SciTegic.value.DoubleValue
0.433

@<SCITEGIC>MOL_PROPERTY
VdW6
SciTegic.value.DoubleValue
-4.089

@<SCITEGIC>MOL_PROPERTY
VdW12
SciTegic.value.DoubleValue
4.522

@<SCITEGIC>MOL_PROPERTY
Bond
SciTegic.value.DoubleValue
0.131

@<SCITEGIC>MOL_PROPERTY
Angle
SciTegic.value.DoubleValue
0.628

@<SCITEGIC>MOL_PROPERTY
Pdih
SciTegic.value.DoubleValue
1.047

@<SCITEGIC>MOL_PROPERTY
Idih
SciTegic.value.DoubleValue
0.000

@<SCITEGIC>MOL_PROPERTY
Tether
SciTegic.value.DoubleValue
0.000

@<TRIPOS>MOLECULE
guest-s11_confgen4.mol2 : confsearch ligand conformer 612
          20          19           1
SMALL
USER_CHARGES
 
@<TRIPOS>ATOM
       1    N1      21.407346   21.433385   23.326513 N.4        1 MOL1        -0.5919
       2    H1      21.978423   21.950313   24.003388 H          1 MOL1         0.3682
       3    H2      22.043317   21.089390   22.601153 H          1 MOL1         0.3682
       4    H3      20.782152   22.113802   22.883389 H          1 MOL1         0.3682
       5    C1      20.637901   20.304649   23.985355 C.3        1 MOL1         0.0252
       6    H4      20.018092   20.742689   24.772474 H          1 MOL1         0.0971
       7    H5      21.358977   19.631020   24.456222 H          1 MOL1         0.0971
       8    C2      19.742147   19.509502   23.015182 C.3        1 MOL1        -0.1369
       9    H6      19.146802   18.802770   23.606539 H          1 MOL1         0.0997
      10    H7      19.030739   20.191481   22.530938 H          1 MOL1         0.0997
      11    C3      20.555437   18.740629   21.943497 C.3        1 MOL1        -0.1329
      12    H8      21.248763   18.043969   22.434855 H          1 MOL1         0.0997
      13    H9      21.176932   19.448217   21.378987 H          1 MOL1         0.0997
      14    C4      19.670717   17.965261   20.936991 C.3        1 MOL1        -0.1305
      15    H10     18.984555   18.660096   20.432758 H          1 MOL1         0.0997
      16    H11     20.315325   17.546784   20.151308 H          1 MOL1         0.0997
      17    C5      18.864660   16.815051   21.582786 C.3        1 MOL1        -0.2320
      18    H12     18.114799   17.193401   22.288356 H          1 MOL1         0.1008
      19    H13     18.332094   16.240659   20.813764 H          1 MOL1         0.1008
      20    H14     19.525353   16.122678   22.120474 H          1 MOL1         0.1008
@<TRIPOS>BOND
    1     1     2    1
    2     1     3    1
    3     1     4    1
    4     1     5    1
    5     5     6    1
    6     5     7    1
    7     5     8    1
    8     8     9    1
    9     8    10    1
   10     8    11    1
   11    11    12    1
   12    11    13    1
   13    11    14    1
   14    14    15    1
   15    14    16    1
   16    14    17    1
   17    17    18    1
   18    17    19    1
   19    17    20    1
@<TRIPOS>SUBSTRUCTURE
       1 MOL1            1 RESIDUE      1      MOL     
@<SCITEGIC>MOL_PROPERTY
VConf Rank
SciTegic.value.IntegerValue
612

@<SCITEGIC>MOL_PROPERTY
Conf_Id
SciTegic.value.IntegerValue
33

@<SCITEGIC>MOL_PROPERTY
Delta U+W
SciTegic.value.DoubleValue
0.703

@<SCITEGIC>MOL_PROPERTY
U+W
SciTegic.value.DoubleValue
-11.075

@<SCITEGIC>MOL_PROPERTY
Grad RMS
SciTegic.value.DoubleValue
0.000000

@<SCITEGIC>MOL_PROPERTY
U
SciTegic.value.DoubleValue
47.080

@<SCITEGIC>MOL_PROPERTY
W
SciTegic.value.DoubleValue
-58.154

@<SCITEGIC>MOL_PROPERTY
W(PB)
SciTegic.value.DoubleValue
-60.053

@<SCITEGIC>MOL_PROPERTY
W(SA)
SciTegic.value.DoubleValue
1.899

@<SCITEGIC>MOL_PROPERTY
Valence
SciTegic.value.DoubleValue
1.943

@<SCITEGIC>MOL_PROPERTY
Coulomb
SciTegic.value.DoubleValue
44.572

@<SCITEGIC>MOL_PROPERTY
VdW
SciTegic.value.DoubleValue
0.565

@<SCITEGIC>MOL_PROPERTY
VdW6
SciTegic.value.DoubleValue
-4.575

@<SCITEGIC>MOL_PROPERTY
VdW12
SciTegic.value.DoubleValue
5.139

@<SCITEGIC>MOL_PROPERTY
Bond
SciTegic.value.DoubleValue
0.158

@<SCITEGIC>MOL_PROPERTY
Angle
SciTegic.value.DoubleValue
0.700

@<SCITEGIC>MOL_PROPERTY
Pdih
SciTegic.value.DoubleValue
1.085

@<SCITEGIC>MOL_PROPERTY
Idih
SciTegic.value.DoubleValue
0.000

@<SCITEGIC>MOL_PROPERTY
Tether
SciTegic.value.DoubleValue
0.000

@<TRIPOS>MOLECULE
guest-s11_confgen4.mol2 : confsearch ligand conformer 613
          20          19           1
SMALL
USER_CHARGES
 
@<TRIPOS>ATOM
       1    N1      21.201031   21.304204   21.123383 N.4        1 MOL1        -0.5919
       2    H1      21.860984   21.722420   20.459262 H          1 MOL1         0.3682
       3    H2      20.359267   21.888627   21.114556 H          1 MOL1         0.3682
       4    H3      21.619778   21.390547   22.054046 H          1 MOL1         0.3682
       5    C1      20.890556   19.861187   20.774859 C.3        1 MOL1         0.0252
       6    H4      21.829345   19.300742   20.779228 H          1 MOL1         0.0971
       7    H5      20.490494   19.845775   19.757356 H          1 MOL1         0.0971
       8    C2      19.882055   19.191147   21.728710 C.3        1 MOL1        -0.1369
       9    H6      18.946516   19.765962   21.735468 H          1 MOL1         0.0997
      10    H7      19.639340   18.201024   21.323303 H          1 MOL1         0.0997
      11    C3      20.427991   19.046783   23.171704 C.3        1 MOL1        -0.1329
      12    H8      20.703338   20.036605   23.559063 H          1 MOL1         0.0997
      13    H9      21.351620   18.451606   23.159766 H          1 MOL1         0.0997
      14    C4      19.414811   18.408753   24.153212 C.3        1 MOL1        -0.1305
      15    H10     19.835020   18.448423   25.167999 H          1 MOL1         0.0997
      16    H11     18.494019   19.008202   24.179059 H          1 MOL1         0.0997
      17    C5      19.070148   16.940071   23.815652 C.3        1 MOL1        -0.2320
      18    H12     19.977552   16.325526   23.752750 H          1 MOL1         0.1008
      19    H13     18.426535   16.508448   24.593091 H          1 MOL1         0.1008
      20    H14     18.533052   16.859683   22.862585 H          1 MOL1         0.1008
@<TRIPOS>BOND
    1     1     2    1
    2     1     3    1
    3     1     4    1
    4     1     5    1
    5     5     6    1
    6     5     7    1
    7     5     8    1
    8     8     9    1
    9     8    10    1
   10     8    11    1
   11    11    12    1
   12    11    13    1
   13    11    14    1
   14    14    15    1
   15    14    16    1
   16    14    17    1
   17    17    18    1
   18    17    19    1
   19    17    20    1
@<TRIPOS>SUBSTRUCTURE
       1 MOL1            1 RESIDUE      1      MOL     
@<SCITEGIC>MOL_PROPERTY
VConf Rank
SciTegic.value.IntegerValue
613

@<SCITEGIC>MOL_PROPERTY
Conf_Id
SciTegic.value.IntegerValue
24

@<SCITEGIC>MOL_PROPERTY
Delta U+W
SciTegic.value.DoubleValue
0.847

@<SCITEGIC>MOL_PROPERTY
U+W
SciTegic.value.DoubleValue
-10.931

@<SCITEGIC>MOL_PROPERTY
Grad RMS
SciTegic.value.DoubleValue
0.000000

@<SCITEGIC>MOL_PROPERTY
U
SciTegic.value.DoubleValue
47.080

@<SCITEGIC>MOL_PROPERTY
W
SciTegic.value.DoubleValue
-58.011

@<SCITEGIC>MOL_PROPERTY
W(PB)
SciTegic.value.DoubleValue
-59.914

@<SCITEGIC>MOL_PROPERTY
W(SA)
SciTegic.value.DoubleValue
1.903

@<SCITEGIC>MOL_PROPERTY
Valence
SciTegic.value.DoubleValue
1.943

@<SCITEGIC>MOL_PROPERTY
Coulomb
SciTegic.value.DoubleValue
44.572

@<SCITEGIC>MOL_PROPERTY
VdW
SciTegic.value.DoubleValue
0.565

@<SCITEGIC>MOL_PROPERTY
VdW6
SciTegic.value.DoubleValue
-4.575

@<SCITEGIC>MOL_PROPERTY
VdW12
SciTegic.value.DoubleValue
5.140

@<SCITEGIC>MOL_PROPERTY
Bond
SciTegic.value.DoubleValue
0.158

@<SCITEGIC>MOL_PROPERTY
Angle
SciTegic.value.DoubleValue
0.700

@<SCITEGIC>MOL_PROPERTY
Pdih
SciTegic.value.DoubleValue
1.085

@<SCITEGIC>MOL_PROPERTY
Idih
SciTegic.value.DoubleValue
0.000

@<SCITEGIC>MOL_PROPERTY
Tether
SciTegic.value.DoubleValue
0.000

@<TRIPOS>MOLECULE
guest-s11_confgen4.mol2 : confsearch ligand conformer 614
          20          19           1
SMALL
USER_CHARGES
 
@<TRIPOS>ATOM
       1    N1      21.279943   17.327708   24.130384 N.4        1 MOL1        -0.5919
       2    H1      21.469932   17.415029   25.134261 H          1 MOL1         0.3682
       3    H2      20.467659   16.710339   24.034098 H          1 MOL1         0.3682
       4    H3      22.080629   16.838570   23.718127 H          1 MOL1         0.3682
       5    C1      21.045928   18.677223   23.482021 C.3        1 MOL1         0.0252
       6    H4      21.935682   19.290663   23.647571 H          1 MOL1         0.0971
       7    H5      20.201771   19.151612   23.989307 H          1 MOL1         0.0971
       8    C2      20.756663   18.581297   21.972138 C.3        1 MOL1        -0.1369
       9    H6      21.591624   18.066432   21.478665 H          1 MOL1         0.0997
      10    H7      19.868967   17.958181   21.804282 H          1 MOL1         0.0997
      11    C3      20.563541   19.968228   21.309473 C.3        1 MOL1        -0.1329
      12    H8      20.373792   19.827037   20.236476 H          1 MOL1         0.0997
      13    H9      21.505221   20.530384   21.378113 H          1 MOL1         0.0997
      14    C4      19.424739   20.826952   21.916884 C.3        1 MOL1        -0.1305
      15    H10     19.649085   21.068609   22.964761 H          1 MOL1         0.0997
      16    H11     19.390826   21.789107   21.386800 H          1 MOL1         0.0997
      17    C5      18.034343   20.158254   21.823876 C.3        1 MOL1        -0.2320
      18    H12     17.253921   20.842694   22.180790 H          1 MOL1         0.1008
      19    H13     17.794816   19.887655   20.787354 H          1 MOL1         0.1008
      20    H14     17.982199   19.250319   22.437529 H          1 MOL1         0.1008
@<TRIPOS>BOND
    1     1     2    1
    2     1     3    1
    3     1     4    1
    4     1     5    1
    5     5     6    1
    6     5     7    1
    7     5     8    1
    8     8     9    1
    9     8    10    1
   10     8    11    1
   11    11    12    1
   12    11    13    1
   13    11    14    1
   14    14    15    1
   15    14    16    1
   16    14    17    1
   17    17    18    1
   18    17    19    1
   19    17    20    1
@<TRIPOS>SUBSTRUCTURE
       1 MOL1            1 RESIDUE      1      MOL     
@<SCITEGIC>MOL_PROPERTY
VConf Rank
SciTegic.value.IntegerValue
614

@<SCITEGIC>MOL_PROPERTY
Conf_Id
SciTegic.value.IntegerValue
64

@<SCITEGIC>MOL_PROPERTY
Delta U+W
SciTegic.value.DoubleValue
0.707

@<SCITEGIC>MOL_PROPERTY
U+W
SciTegic.value.DoubleValue
-11.070

@<SCITEGIC>MOL_PROPERTY
Grad RMS
SciTegic.value.DoubleValue
0.000000

@<SCITEGIC>MOL_PROPERTY
U
SciTegic.value.DoubleValue
47.077

@<SCITEGIC>MOL_PROPERTY
W
SciTegic.value.DoubleValue
-58.148

@<SCITEGIC>MOL_PROPERTY
W(PB)
SciTegic.value.DoubleValue
-60.054

@<SCITEGIC>MOL_PROPERTY
W(SA)
SciTegic.value.DoubleValue
1.906

@<SCITEGIC>MOL_PROPERTY
Valence
SciTegic.value.DoubleValue
2.039

@<SCITEGIC>MOL_PROPERTY
Coulomb
SciTegic.value.DoubleValue
44.655

@<SCITEGIC>MOL_PROPERTY
VdW
SciTegic.value.DoubleValue
0.383

@<SCITEGIC>MOL_PROPERTY
VdW6
SciTegic.value.DoubleValue
-4.912

@<SCITEGIC>MOL_PROPERTY
VdW12
SciTegic.value.DoubleValue
5.295

@<SCITEGIC>MOL_PROPERTY
Bond
SciTegic.value.DoubleValue
0.159

@<SCITEGIC>MOL_PROPERTY
Angle
SciTegic.value.DoubleValue
0.856

@<SCITEGIC>MOL_PROPERTY
Pdih
SciTegic.value.DoubleValue
1.024

@<SCITEGIC>MOL_PROPERTY
Idih
SciTegic.value.DoubleValue
0.000

@<SCITEGIC>MOL_PROPERTY
Tether
SciTegic.value.DoubleValue
0.000

@<TRIPOS>MOLECULE
guest-s11_confgen4.mol2 : confsearch ligand conformer 615
          20          19           1
SMALL
USER_CHARGES
 
@<TRIPOS>ATOM
       1    N1      17.907965   18.491153   23.888878 N.4        1 MOL1        -0.5919
       2    H1      17.430383   19.312764   24.272518 H          1 MOL1         0.3682
       3    H2      17.416373   18.231675   23.027930 H          1 MOL1         0.3682
       4    H3      17.764218   17.725630   24.555811 H          1 MOL1         0.3682
       5    C1      19.379795   18.755220   23.643291 C.3        1 MOL1         0.0252
       6    H4      19.828084   17.832443   23.265795 H          1 MOL1         0.0971
       7    H5      19.844798   18.996074   24.603052 H          1 MOL1         0.0971
       8    C2      19.630755   19.900540   22.644350 C.3        1 MOL1        -0.1369
       9    H6      19.156552   19.663900   21.683315 H          1 MOL1         0.0997
      10    H7      19.141273   20.811851   23.012699 H          1 MOL1         0.0997
      11    C3      21.137445   20.193157   22.433979 C.3        1 MOL1        -0.1329
      12    H8      21.567023   20.549358   23.380593 H          1 MOL1         0.0997
      13    H9      21.243044   21.024148   21.722948 H          1 MOL1         0.0997
      14    C4      21.970817   18.986652   21.930928 C.3        1 MOL1        -0.1305
      15    H10     23.019692   19.300828   21.835865 H          1 MOL1         0.0997
      16    H11     21.964377   18.182421   22.679224 H          1 MOL1         0.0997
      17    C5      21.491602   18.433685   20.569462 C.3        1 MOL1        -0.2320
      18    H12     21.469253   19.224026   19.807991 H          1 MOL1         0.1008
      19    H13     22.168259   17.645397   20.215002 H          1 MOL1         0.1008
      20    H14     20.487510   17.997712   20.642689 H          1 MOL1         0.1008
@<TRIPOS>BOND
    1     1     2    1
    2     1     3    1
    3     1     4    1
    4     1     5    1
    5     5     6    1
    6     5     7    1
    7     5     8    1
    8     8     9    1
    9     8    10    1
   10     8    11    1
   11    11    12    1
   12    11    13    1
   13    11    14    1
   14    14    15    1
   15    14    16    1
   16    14    17    1
   17    17    18    1
   18    17    19    1
   19    17    20    1
@<TRIPOS>SUBSTRUCTURE
       1 MOL1            1 RESIDUE      1      MOL     
@<SCITEGIC>MOL_PROPERTY
VConf Rank
SciTegic.value.IntegerValue
615

@<SCITEGIC>MOL_PROPERTY
Conf_Id
SciTegic.value.IntegerValue
22

@<SCITEGIC>MOL_PROPERTY
Delta U+W
SciTegic.value.DoubleValue
0.731

@<SCITEGIC>MOL_PROPERTY
U+W
SciTegic.value.DoubleValue
-11.047

@<SCITEGIC>MOL_PROPERTY
Grad RMS
SciTegic.value.DoubleValue
0.000000

@<SCITEGIC>MOL_PROPERTY
U
SciTegic.value.DoubleValue
47.078

@<SCITEGIC>MOL_PROPERTY
W
SciTegic.value.DoubleValue
-58.125

@<SCITEGIC>MOL_PROPERTY
W(PB)
SciTegic.value.DoubleValue
-60.031

@<SCITEGIC>MOL_PROPERTY
W(SA)
SciTegic.value.DoubleValue
1.906

@<SCITEGIC>MOL_PROPERTY
Valence
SciTegic.value.DoubleValue
2.039

@<SCITEGIC>MOL_PROPERTY
Coulomb
SciTegic.value.DoubleValue
44.655

@<SCITEGIC>MOL_PROPERTY
VdW
SciTegic.value.DoubleValue
0.383

@<SCITEGIC>MOL_PROPERTY
VdW6
SciTegic.value.DoubleValue
-4.913

@<SCITEGIC>MOL_PROPERTY
VdW12
SciTegic.value.DoubleValue
5.296

@<SCITEGIC>MOL_PROPERTY
Bond
SciTegic.value.DoubleValue
0.159

@<SCITEGIC>MOL_PROPERTY
Angle
SciTegic.value.DoubleValue
0.856

@<SCITEGIC>MOL_PROPERTY
Pdih
SciTegic.value.DoubleValue
1.024

@<SCITEGIC>MOL_PROPERTY
Idih
SciTegic.value.DoubleValue
0.000

@<SCITEGIC>MOL_PROPERTY
Tether
SciTegic.value.DoubleValue
0.000

@<TRIPOS>MOLECULE
guest-s11_confgen4.mol2 : confsearch ligand conformer 616
          20          19           1
SMALL
USER_CHARGES
 
@<TRIPOS>ATOM
       1    N1      18.740529   16.858888   22.594716 N.4        1 MOL1        -0.5919
       2    H1      19.440484   16.171387   22.298507 H          1 MOL1         0.3682
       3    H2      18.453050   16.605486   23.545218 H          1 MOL1         0.3682
       4    H3      17.921432   16.728050   21.991843 H          1 MOL1         0.3682
       5    C1      19.272641   18.276026   22.522708 C.3        1 MOL1         0.0252
       6    H4      18.470050   18.954556   22.824106 H          1 MOL1         0.0971
       7    H5      19.528824   18.481425   21.480859 H          1 MOL1         0.0971
       8    C2      20.507077   18.503793   23.413192 C.3        1 MOL1        -0.1369
       9    H6      20.269838   18.179407   24.435158 H          1 MOL1         0.0997
      10    H7      21.329890   17.863751   23.068070 H          1 MOL1         0.0997
      11    C3      20.981369   19.978357   23.464379 C.3        1 MOL1        -0.1329
      12    H8      21.801368   20.035817   24.193661 H          1 MOL1         0.0997
      13    H9      20.183495   20.619338   23.864243 H          1 MOL1         0.0997
      14    C4      21.498614   20.545229   22.116676 C.3        1 MOL1        -0.1305
      15    H10     22.239646   21.327511   22.333493 H          1 MOL1         0.0997
      16    H11     22.036596   19.767286   21.557104 H          1 MOL1         0.0997
      17    C5      20.393395   21.172947   21.235032 C.3        1 MOL1        -0.2320
      18    H12     19.659703   20.433178   20.898414 H          1 MOL1         0.1008
      19    H13     19.857209   21.961979   21.778113 H          1 MOL1         0.1008
      20    H14     20.833396   21.628203   20.338302 H          1 MOL1         0.1008
@<TRIPOS>BOND
    1     1     2    1
    2     1     3    1
    3     1     4    1
    4     1     5    1
    5     5     6    1
    6     5     7    1
    7     5     8    1
    8     8     9    1
    9     8    10    1
   10     8    11    1
   11    11    12    1
   12    11    13    1
   13    11    14    1
   14    14    15    1
   15    14    16    1
   16    14    17    1
   17    17    18    1
   18    17    19    1
   19    17    20    1
@<TRIPOS>SUBSTRUCTURE
       1 MOL1            1 RESIDUE      1      MOL     
@<SCITEGIC>MOL_PROPERTY
VConf Rank
SciTegic.value.IntegerValue
616

@<SCITEGIC>MOL_PROPERTY
Conf_Id
SciTegic.value.IntegerValue
61

@<SCITEGIC>MOL_PROPERTY
Delta U+W
SciTegic.value.DoubleValue
2.669

@<SCITEGIC>MOL_PROPERTY
U+W
SciTegic.value.DoubleValue
-9.108

@<SCITEGIC>MOL_PROPERTY
Grad RMS
SciTegic.value.DoubleValue
0.000000

@<SCITEGIC>MOL_PROPERTY
U
SciTegic.value.DoubleValue
48.916

@<SCITEGIC>MOL_PROPERTY
W
SciTegic.value.DoubleValue
-58.025

@<SCITEGIC>MOL_PROPERTY
W(PB)
SciTegic.value.DoubleValue
-59.935

@<SCITEGIC>MOL_PROPERTY
W(SA)
SciTegic.value.DoubleValue
1.911

@<SCITEGIC>MOL_PROPERTY
Valence
SciTegic.value.DoubleValue
3.785

@<SCITEGIC>MOL_PROPERTY
Coulomb
SciTegic.value.DoubleValue
44.716

@<SCITEGIC>MOL_PROPERTY
VdW
SciTegic.value.DoubleValue
0.415

@<SCITEGIC>MOL_PROPERTY
VdW6
SciTegic.value.DoubleValue
-4.836

@<SCITEGIC>MOL_PROPERTY
VdW12
SciTegic.value.DoubleValue
5.251

@<SCITEGIC>MOL_PROPERTY
Bond
SciTegic.value.DoubleValue
0.175

@<SCITEGIC>MOL_PROPERTY
Angle
SciTegic.value.DoubleValue
1.195

@<SCITEGIC>MOL_PROPERTY
Pdih
SciTegic.value.DoubleValue
2.415

@<SCITEGIC>MOL_PROPERTY
Idih
SciTegic.value.DoubleValue
0.000

@<SCITEGIC>MOL_PROPERTY
Tether
SciTegic.value.DoubleValue
0.000

@<TRIPOS>MOLECULE
guest-s11_confgen4.mol2 : confsearch ligand conformer 617
          20          19           1
SMALL
USER_CHARGES
 
@<TRIPOS>ATOM
       1    N1      18.966849   18.250628   24.232011 N.4        1 MOL1        -0.5919
       2    H1      18.058325   18.247211   24.707631 H          1 MOL1         0.3682
       3    H2      19.622023   17.750060   24.840681 H          1 MOL1         0.3682
       4    H3      19.279214   19.224019   24.187706 H          1 MOL1         0.3682
       5    C1      18.882731   17.618739   22.855707 C.3        1 MOL1         0.0252
       6    H4      18.130363   18.155004   22.271155 H          1 MOL1         0.0971
       7    H5      18.531985   16.592893   22.997751 H          1 MOL1         0.0971
       8    C2      20.220242   17.588558   22.086534 C.3        1 MOL1        -0.1369
       9    H6      21.036766   17.301241   22.762220 H          1 MOL1         0.0997
      10    H7      20.155590   16.789284   21.336299 H          1 MOL1         0.0997
      11    C3      20.568719   18.906023   21.347197 C.3        1 MOL1        -0.1329
      12    H8      19.768980   19.147853   20.633473 H          1 MOL1         0.0997
      13    H9      21.471856   18.731764   20.745983 H          1 MOL1         0.0997
      14    C4      20.814052   20.117624   22.276792 C.3        1 MOL1        -0.1305
      15    H10     19.879919   20.403744   22.776174 H          1 MOL1         0.0997
      16    H11     21.535390   19.847338   23.060730 H          1 MOL1         0.0997
      17    C5      21.345601   21.336810   21.493172 C.3        1 MOL1        -0.2320
      18    H12     21.505133   22.190182   22.165003 H          1 MOL1         0.1008
      19    H13     22.303218   21.108195   21.007449 H          1 MOL1         0.1008
      20    H14     20.634341   21.647858   20.716881 H          1 MOL1         0.1008
@<TRIPOS>BOND
    1     1     2    1
    2     1     3    1
    3     1     4    1
    4     1     5    1
    5     5     6    1
    6     5     7    1
    7     5     8    1
    8     8     9    1
    9     8    10    1
   10     8    11    1
   11    11    12    1
   12    11    13    1
   13    11    14    1
   14    14    15    1
   15    14    16    1
   16    14    17    1
   17    17    18    1
   18    17    19    1
   19    17    20    1
@<TRIPOS>SUBSTRUCTURE
       1 MOL1            1 RESIDUE      1      MOL     
@<SCITEGIC>MOL_PROPERTY
VConf Rank
SciTegic.value.IntegerValue
617

@<SCITEGIC>MOL_PROPERTY
Conf_Id
SciTegic.value.IntegerValue
69

@<SCITEGIC>MOL_PROPERTY
Delta U+W
SciTegic.value.DoubleValue
2.811

@<SCITEGIC>MOL_PROPERTY
U+W
SciTegic.value.DoubleValue
-8.967

@<SCITEGIC>MOL_PROPERTY
Grad RMS
SciTegic.value.DoubleValue
0.000000

@<SCITEGIC>MOL_PROPERTY
U
SciTegic.value.DoubleValue
49.216

@<SCITEGIC>MOL_PROPERTY
W
SciTegic.value.DoubleValue
-58.183

@<SCITEGIC>MOL_PROPERTY
W(PB)
SciTegic.value.DoubleValue
-60.064

@<SCITEGIC>MOL_PROPERTY
W(SA)
SciTegic.value.DoubleValue
1.881

@<SCITEGIC>MOL_PROPERTY
Valence
SciTegic.value.DoubleValue
2.929

@<SCITEGIC>MOL_PROPERTY
Coulomb
SciTegic.value.DoubleValue
46.006

@<SCITEGIC>MOL_PROPERTY
VdW
SciTegic.value.DoubleValue
0.281

@<SCITEGIC>MOL_PROPERTY
VdW6
SciTegic.value.DoubleValue
-4.909

@<SCITEGIC>MOL_PROPERTY
VdW12
SciTegic.value.DoubleValue
5.190

@<SCITEGIC>MOL_PROPERTY
Bond
SciTegic.value.DoubleValue
0.156

@<SCITEGIC>MOL_PROPERTY
Angle
SciTegic.value.DoubleValue
0.974

@<SCITEGIC>MOL_PROPERTY
Pdih
SciTegic.value.DoubleValue
1.799

@<SCITEGIC>MOL_PROPERTY
Idih
SciTegic.value.DoubleValue
0.000

@<SCITEGIC>MOL_PROPERTY
Tether
SciTegic.value.DoubleValue
0.000

@<TRIPOS>MOLECULE
guest-s11_confgen4.mol2 : confsearch ligand conformer 618
          20          19           1
SMALL
USER_CHARGES
 
@<TRIPOS>ATOM
       1    N1      18.837107   21.076907   22.144815 N.4        1 MOL1        -0.5919
       2    H1      18.998533   20.428629   21.369762 H          1 MOL1         0.3682
       3    H2      17.891753   20.897381   22.497491 H          1 MOL1         0.3682
       4    H3      18.831630   22.023245   21.749775 H          1 MOL1         0.3682
       5    C1      19.881587   20.929236   23.234688 C.3        1 MOL1         0.0252
       6    H4      19.639440   21.662719   24.008591 H          1 MOL1         0.0971
       7    H5      20.858947   21.187693   22.818387 H          1 MOL1         0.0971
       8    C2      19.939178   19.526324   23.875001 C.3        1 MOL1        -0.1369
       9    H6      20.394502   19.631674   24.868708 H          1 MOL1         0.0997
      10    H7      18.922426   19.149664   24.048660 H          1 MOL1         0.0997
      11    C3      20.771668   18.488137   23.079451 C.3        1 MOL1        -0.1329
      12    H8      20.839097   17.571062   23.681037 H          1 MOL1         0.0997
      13    H9      21.801306   18.854564   22.965255 H          1 MOL1         0.0997
      14    C4      20.193916   18.131977   21.689608 C.3        1 MOL1        -0.1305
      15    H10     19.131301   17.867308   21.783111 H          1 MOL1         0.0997
      16    H11     20.257347   19.000482   21.022129 H          1 MOL1         0.0997
      17    C5      20.956860   16.957142   21.040996 C.3        1 MOL1        -0.2320
      18    H12     20.886847   16.051378   21.657366 H          1 MOL1         0.1008
      19    H13     20.541191   16.723427   20.052235 H          1 MOL1         0.1008
      20    H14     22.019435   17.200434   20.910553 H          1 MOL1         0.1008
@<TRIPOS>BOND
    1     1     2    1
    2     1     3    1
    3     1     4    1
    4     1     5    1
    5     5     6    1
    6     5     7    1
    7     5     8    1
    8     8     9    1
    9     8    10    1
   10     8    11    1
   11    11    12    1
   12    11    13    1
   13    11    14    1
   14    14    15    1
   15    14    16    1
   16    14    17    1
   17    17    18    1
   18    17    19    1
   19    17    20    1
@<TRIPOS>SUBSTRUCTURE
       1 MOL1            1 RESIDUE      1      MOL     
@<SCITEGIC>MOL_PROPERTY
VConf Rank
SciTegic.value.IntegerValue
618

@<SCITEGIC>MOL_PROPERTY
Conf_Id
SciTegic.value.IntegerValue
26

@<SCITEGIC>MOL_PROPERTY
Delta U+W
SciTegic.value.DoubleValue
2.809

@<SCITEGIC>MOL_PROPERTY
U+W
SciTegic.value.DoubleValue
-8.969

@<SCITEGIC>MOL_PROPERTY
Grad RMS
SciTegic.value.DoubleValue
0.000000

@<SCITEGIC>MOL_PROPERTY
U
SciTegic.value.DoubleValue
49.216

@<SCITEGIC>MOL_PROPERTY
W
SciTegic.value.DoubleValue
-58.185

@<SCITEGIC>MOL_PROPERTY
W(PB)
SciTegic.value.DoubleValue
-60.088

@<SCITEGIC>MOL_PROPERTY
W(SA)
SciTegic.value.DoubleValue
1.903

@<SCITEGIC>MOL_PROPERTY
Valence
SciTegic.value.DoubleValue
2.929

@<SCITEGIC>MOL_PROPERTY
Coulomb
SciTegic.value.DoubleValue
46.006

@<SCITEGIC>MOL_PROPERTY
VdW
SciTegic.value.DoubleValue
0.281

@<SCITEGIC>MOL_PROPERTY
VdW6
SciTegic.value.DoubleValue
-4.909

@<SCITEGIC>MOL_PROPERTY
VdW12
SciTegic.value.DoubleValue
5.190

@<SCITEGIC>MOL_PROPERTY
Bond
SciTegic.value.DoubleValue
0.156

@<SCITEGIC>MOL_PROPERTY
Angle
SciTegic.value.DoubleValue
0.974

@<SCITEGIC>MOL_PROPERTY
Pdih
SciTegic.value.DoubleValue
1.799

@<SCITEGIC>MOL_PROPERTY
Idih
SciTegic.value.DoubleValue
0.000

@<SCITEGIC>MOL_PROPERTY
Tether
SciTegic.value.DoubleValue
0.000

@<TRIPOS>MOLECULE
guest-s11_confgen4.mol2 : confsearch ligand conformer 619
          20          19           1
SMALL
USER_CHARGES
 
@<TRIPOS>ATOM
       1    N1      19.230573   17.070325   21.674323 N.4        1 MOL1        -0.5919
       2    H1      20.202724   16.898741   21.947124 H          1 MOL1         0.3682
       3    H2      18.636813   16.542470   22.321514 H          1 MOL1         0.3682
       4    H3      19.101337   16.656034   20.745361 H          1 MOL1         0.3682
       5    C1      18.898096   18.549642   21.683202 C.3        1 MOL1         0.0252
       6    H4      17.861276   18.659922   21.354035 H          1 MOL1         0.0971
       7    H5      19.540580   19.046851   20.951813 H          1 MOL1         0.0971
       8    C2      19.070240   19.215142   23.063698 C.3        1 MOL1        -0.1369
       9    H6      18.737085   20.258759   22.997346 H          1 MOL1         0.0997
      10    H7      18.396113   18.730888   23.782508 H          1 MOL1         0.0997
      11    C3      20.521056   19.165478   23.611112 C.3        1 MOL1        -0.1329
      12    H8      20.791447   18.123768   23.830057 H          1 MOL1         0.0997
      13    H9      20.552775   19.689386   24.576365 H          1 MOL1         0.0997
      14    C4      21.592107   19.775170   22.670816 C.3        1 MOL1        -0.1305
      15    H10     22.577550   19.667303   23.145282 H          1 MOL1         0.0997
      16    H11     21.644779   19.204625   21.733692 H          1 MOL1         0.0997
      17    C5      21.352386   21.269227   22.355904 C.3        1 MOL1        -0.2320
      18    H12     21.279111   21.860241   23.278019 H          1 MOL1         0.1008
      19    H13     22.181830   21.675012   21.762401 H          1 MOL1         0.1008
      20    H14     20.430992   21.416410   21.778867 H          1 MOL1         0.1008
@<TRIPOS>BOND
    1     1     2    1
    2     1     3    1
    3     1     4    1
    4     1     5    1
    5     5     6    1
    6     5     7    1
    7     5     8    1
    8     8     9    1
    9     8    10    1
   10     8    11    1
   11    11    12    1
   12    11    13    1
   13    11    14    1
   14    14    15    1
   15    14    16    1
   16    14    17    1
   17    17    18    1
   18    17    19    1
   19    17    20    1
@<TRIPOS>SUBSTRUCTURE
       1 MOL1            1 RESIDUE      1      MOL     
@<SCITEGIC>MOL_PROPERTY
VConf Rank
SciTegic.value.IntegerValue
619

@<SCITEGIC>MOL_PROPERTY
Conf_Id
SciTegic.value.IntegerValue
2

@<SCITEGIC>MOL_PROPERTY
Delta U+W
SciTegic.value.DoubleValue
0.994

@<SCITEGIC>MOL_PROPERTY
U+W
SciTegic.value.DoubleValue
-10.784

@<SCITEGIC>MOL_PROPERTY
Grad RMS
SciTegic.value.DoubleValue
0.000000

@<SCITEGIC>MOL_PROPERTY
U
SciTegic.value.DoubleValue
47.562

@<SCITEGIC>MOL_PROPERTY
W
SciTegic.value.DoubleValue
-58.346

@<SCITEGIC>MOL_PROPERTY
W(PB)
SciTegic.value.DoubleValue
-60.221

@<SCITEGIC>MOL_PROPERTY
W(SA)
SciTegic.value.DoubleValue
1.875

@<SCITEGIC>MOL_PROPERTY
Valence
SciTegic.value.DoubleValue
2.149

@<SCITEGIC>MOL_PROPERTY
Coulomb
SciTegic.value.DoubleValue
45.034

@<SCITEGIC>MOL_PROPERTY
VdW
SciTegic.value.DoubleValue
0.378

@<SCITEGIC>MOL_PROPERTY
VdW6
SciTegic.value.DoubleValue
-5.599

@<SCITEGIC>MOL_PROPERTY
VdW12
SciTegic.value.DoubleValue
5.977

@<SCITEGIC>MOL_PROPERTY
Bond
SciTegic.value.DoubleValue
0.185

@<SCITEGIC>MOL_PROPERTY
Angle
SciTegic.value.DoubleValue
0.935

@<SCITEGIC>MOL_PROPERTY
Pdih
SciTegic.value.DoubleValue
1.028

@<SCITEGIC>MOL_PROPERTY
Idih
SciTegic.value.DoubleValue
0.000

@<SCITEGIC>MOL_PROPERTY
Tether
SciTegic.value.DoubleValue
0.000

@<TRIPOS>MOLECULE
guest-s11_confgen4.mol2 : confsearch ligand conformer 620
          20          19           1
SMALL
USER_CHARGES
 
@<TRIPOS>ATOM
       1    N1      19.498681   21.385979   22.771167 N.4        1 MOL1        -0.5919
       2    H1      18.672135   21.705305   22.256490 H          1 MOL1         0.3682
       3    H2      19.164499   20.863043   23.585906 H          1 MOL1         0.3682
       4    H3      19.971977   22.223858   23.125084 H          1 MOL1         0.3682
       5    C1      20.414168   20.545894   21.902181 C.3        1 MOL1         0.0252
       6    H4      21.287063   20.267073   22.498207 H          1 MOL1         0.0971
       7    H5      20.755392   21.173176   21.074176 H          1 MOL1         0.0971
       8    C2      19.742066   19.276992   21.339639 C.3        1 MOL1        -0.1369
       9    H6      18.887524   19.569758   20.715392 H          1 MOL1         0.0997
      10    H7      20.446276   18.772928   20.665442 H          1 MOL1         0.0997
      11    C3      19.261456   18.282309   22.428956 C.3        1 MOL1        -0.1329
      12    H8      18.829349   17.400344   21.936390 H          1 MOL1         0.0997
      13    H9      18.439504   18.736360   22.998552 H          1 MOL1         0.0997
      14    C4      20.361812   17.819334   23.417849 C.3        1 MOL1        -0.1305
      15    H10     20.741594   18.675093   23.992251 H          1 MOL1         0.0997
      16    H11     19.908921   17.139699   24.153264 H          1 MOL1         0.0997
      17    C5      21.539413   17.093368   22.728597 C.3        1 MOL1        -0.2320
      18    H12     22.096205   17.767876   22.066311 H          1 MOL1         0.1008
      19    H13     22.244773   16.708746   23.476541 H          1 MOL1         0.1008
      20    H14     21.184404   16.242139   22.133334 H          1 MOL1         0.1008
@<TRIPOS>BOND
    1     1     2    1
    2     1     3    1
    3     1     4    1
    4     1     5    1
    5     5     6    1
    6     5     7    1
    7     5     8    1
    8     8     9    1
    9     8    10    1
   10     8    11    1
   11    11    12    1
   12    11    13    1
   13    11    14    1
   14    14    15    1
   15    14    16    1
   16    14    17    1
   17    17    18    1
   18    17    19    1
   19    17    20    1
@<TRIPOS>SUBSTRUCTURE
       1 MOL1            1 RESIDUE      1      MOL     
@<SCITEGIC>MOL_PROPERTY
VConf Rank
SciTegic.value.IntegerValue
620

@<SCITEGIC>MOL_PROPERTY
Conf_Id
SciTegic.value.IntegerValue
1

@<SCITEGIC>MOL_PROPERTY
Delta U+W
SciTegic.value.DoubleValue
1.032

@<SCITEGIC>MOL_PROPERTY
U+W
SciTegic.value.DoubleValue
-10.746

@<SCITEGIC>MOL_PROPERTY
Grad RMS
SciTegic.value.DoubleValue
0.000000

@<SCITEGIC>MOL_PROPERTY
U
SciTegic.value.DoubleValue
47.562

@<SCITEGIC>MOL_PROPERTY
W
SciTegic.value.DoubleValue
-58.308

@<SCITEGIC>MOL_PROPERTY
W(PB)
SciTegic.value.DoubleValue
-60.184

@<SCITEGIC>MOL_PROPERTY
W(SA)
SciTegic.value.DoubleValue
1.877

@<SCITEGIC>MOL_PROPERTY
Valence
SciTegic.value.DoubleValue
2.149

@<SCITEGIC>MOL_PROPERTY
Coulomb
SciTegic.value.DoubleValue
45.035

@<SCITEGIC>MOL_PROPERTY
VdW
SciTegic.value.DoubleValue
0.378

@<SCITEGIC>MOL_PROPERTY
VdW6
SciTegic.value.DoubleValue
-5.599

@<SCITEGIC>MOL_PROPERTY
VdW12
SciTegic.value.DoubleValue
5.978

@<SCITEGIC>MOL_PROPERTY
Bond
SciTegic.value.DoubleValue
0.185

@<SCITEGIC>MOL_PROPERTY
Angle
SciTegic.value.DoubleValue
0.935

@<SCITEGIC>MOL_PROPERTY
Pdih
SciTegic.value.DoubleValue
1.028

@<SCITEGIC>MOL_PROPERTY
Idih
SciTegic.value.DoubleValue
0.000

@<SCITEGIC>MOL_PROPERTY
Tether
SciTegic.value.DoubleValue
0.000

@<TRIPOS>MOLECULE
guest-s11_confgen4.mol2 : confsearch ligand conformer 621
          20          19           1
SMALL
USER_CHARGES
 
@<TRIPOS>ATOM
       1    N1      21.209922   20.887867   21.316231 N.4        1 MOL1        -0.5919
       2    H1      22.228125   20.999314   21.346782 H          1 MOL1         0.3682
       3    H2      21.007224   20.138285   20.648606 H          1 MOL1         0.3682
       4    H3      20.827200   21.752842   20.920392 H          1 MOL1         0.3682
       5    C1      20.633023   20.592672   22.687291 C.3        1 MOL1         0.0252
       6    H4      19.549150   20.517477   22.586862 H          1 MOL1         0.0971
       7    H5      20.852388   21.451371   23.327634 H          1 MOL1         0.0971
       8    C2      21.201983   19.315536   23.341449 C.3        1 MOL1        -0.1369
       9    H6      22.291918   19.427256   23.414809 H          1 MOL1         0.0997
      10    H7      20.837428   19.242863   24.374618 H          1 MOL1         0.0997
      11    C3      20.882270   17.999243   22.582847 C.3        1 MOL1        -0.1329
      12    H8      21.641915   17.256430   22.863192 H          1 MOL1         0.0997
      13    H9      20.996024   18.138690   21.500102 H          1 MOL1         0.0997
      14    C4      19.494402   17.382205   22.894487 C.3        1 MOL1        -0.1305
      15    H10     19.422889   16.415915   22.375721 H          1 MOL1         0.0997
      16    H11     19.422012   17.155440   23.967389 H          1 MOL1         0.0997
      17    C5      18.292535   18.255623   22.471889 C.3        1 MOL1        -0.2320
      18    H12     18.392059   18.595772   21.433066 H          1 MOL1         0.1008
      19    H13     17.358954   17.683429   22.549021 H          1 MOL1         0.1008
      20    H14     18.187865   19.132533   23.121602 H          1 MOL1         0.1008
@<TRIPOS>BOND
    1     1     2    1
    2     1     3    1
    3     1     4    1
    4     1     5    1
    5     5     6    1
    6     5     7    1
    7     5     8    1
    8     8     9    1
    9     8    10    1
   10     8    11    1
   11    11    12    1
   12    11    13    1
   13    11    14    1
   14    14    15    1
   15    14    16    1
   16    14    17    1
   17    17    18    1
   18    17    19    1
   19    17    20    1
@<TRIPOS>SUBSTRUCTURE
       1 MOL1            1 RESIDUE      1      MOL     
@<SCITEGIC>MOL_PROPERTY
VConf Rank
SciTegic.value.IntegerValue
621

@<SCITEGIC>MOL_PROPERTY
Conf_Id
SciTegic.value.IntegerValue
80

@<SCITEGIC>MOL_PROPERTY
Delta U+W
SciTegic.value.DoubleValue
2.920

@<SCITEGIC>MOL_PROPERTY
U+W
SciTegic.value.DoubleValue
-8.857

@<SCITEGIC>MOL_PROPERTY
Grad RMS
SciTegic.value.DoubleValue
0.000000

@<SCITEGIC>MOL_PROPERTY
U
SciTegic.value.DoubleValue
49.434

@<SCITEGIC>MOL_PROPERTY
W
SciTegic.value.DoubleValue
-58.292

@<SCITEGIC>MOL_PROPERTY
W(PB)
SciTegic.value.DoubleValue
-60.170

@<SCITEGIC>MOL_PROPERTY
W(SA)
SciTegic.value.DoubleValue
1.879

@<SCITEGIC>MOL_PROPERTY
Valence
SciTegic.value.DoubleValue
3.798

@<SCITEGIC>MOL_PROPERTY
Coulomb
SciTegic.value.DoubleValue
45.253

@<SCITEGIC>MOL_PROPERTY
VdW
SciTegic.value.DoubleValue
0.384

@<SCITEGIC>MOL_PROPERTY
VdW6
SciTegic.value.DoubleValue
-5.595

@<SCITEGIC>MOL_PROPERTY
VdW12
SciTegic.value.DoubleValue
5.979

@<SCITEGIC>MOL_PROPERTY
Bond
SciTegic.value.DoubleValue
0.198

@<SCITEGIC>MOL_PROPERTY
Angle
SciTegic.value.DoubleValue
1.368

@<SCITEGIC>MOL_PROPERTY
Pdih
SciTegic.value.DoubleValue
2.231

@<SCITEGIC>MOL_PROPERTY
Idih
SciTegic.value.DoubleValue
0.000

@<SCITEGIC>MOL_PROPERTY
Tether
SciTegic.value.DoubleValue
0.000

@<TRIPOS>MOLECULE
guest-s11_confgen4.mol2 : confsearch ligand conformer 622
          20          19           1
SMALL
USER_CHARGES
 
@<TRIPOS>ATOM
       1    N1      22.070582   17.933328   21.904816 N.4        1 MOL1        -0.5919
       2    H1      22.270200   17.774045   20.912409 H          1 MOL1         0.3682
       3    H2      22.906579   17.649492   22.426249 H          1 MOL1         0.3682
       4    H3      21.319898   17.289210   22.169904 H          1 MOL1         0.3682
       5    C1      21.698048   19.377180   22.180979 C.3        1 MOL1         0.0252
       6    H4      22.559458   19.995371   21.913893 H          1 MOL1         0.0971
       7    H5      21.530134   19.481688   23.254012 H          1 MOL1         0.0971
       8    C2      20.462689   19.863987   21.393810 C.3        1 MOL1        -0.1369
       9    H6      20.337176   20.944157   21.545788 H          1 MOL1         0.0997
      10    H7      20.668169   19.733320   20.323052 H          1 MOL1         0.0997
      11    C3      19.139178   19.131813   21.743902 C.3        1 MOL1        -0.1329
      12    H8      19.310128   18.053003   21.851910 H          1 MOL1         0.0997
      13    H9      18.460289   19.235634   20.886141 H          1 MOL1         0.0997
      14    C4      18.396541   19.677838   22.990654 C.3        1 MOL1        -0.1305
      15    H10     18.142467   20.735946   22.836916 H          1 MOL1         0.0997
      16    H11     17.438484   19.146833   23.080692 H          1 MOL1         0.0997
      17    C5      19.169570   19.522990   24.318952 C.3        1 MOL1        -0.2320
      18    H12     20.020395   20.212674   24.368806 H          1 MOL1         0.1008
      19    H13     18.516176   19.754353   25.170114 H          1 MOL1         0.1008
      20    H14     19.538370   18.497385   24.448878 H          1 MOL1         0.1008
@<TRIPOS>BOND
    1     1     2    1
    2     1     3    1
    3     1     4    1
    4     1     5    1
    5     5     6    1
    6     5     7    1
    7     5     8    1
    8     8     9    1
    9     8    10    1
   10     8    11    1
   11    11    12    1
   12    11    13    1
   13    11    14    1
   14    14    15    1
   15    14    16    1
   16    14    17    1
   17    17    18    1
   18    17    19    1
   19    17    20    1
@<TRIPOS>SUBSTRUCTURE
       1 MOL1            1 RESIDUE      1      MOL     
@<SCITEGIC>MOL_PROPERTY
VConf Rank
SciTegic.value.IntegerValue
622

@<SCITEGIC>MOL_PROPERTY
Conf_Id
SciTegic.value.IntegerValue
65

@<SCITEGIC>MOL_PROPERTY
Delta U+W
SciTegic.value.DoubleValue
2.949

@<SCITEGIC>MOL_PROPERTY
U+W
SciTegic.value.DoubleValue
-8.829

@<SCITEGIC>MOL_PROPERTY
Grad RMS
SciTegic.value.DoubleValue
0.000000

@<SCITEGIC>MOL_PROPERTY
U
SciTegic.value.DoubleValue
49.435

@<SCITEGIC>MOL_PROPERTY
W
SciTegic.value.DoubleValue
-58.263

@<SCITEGIC>MOL_PROPERTY
W(PB)
SciTegic.value.DoubleValue
-60.125

@<SCITEGIC>MOL_PROPERTY
W(SA)
SciTegic.value.DoubleValue
1.862

@<SCITEGIC>MOL_PROPERTY
Valence
SciTegic.value.DoubleValue
3.797

@<SCITEGIC>MOL_PROPERTY
Coulomb
SciTegic.value.DoubleValue
45.253

@<SCITEGIC>MOL_PROPERTY
VdW
SciTegic.value.DoubleValue
0.384

@<SCITEGIC>MOL_PROPERTY
VdW6
SciTegic.value.DoubleValue
-5.596

@<SCITEGIC>MOL_PROPERTY
VdW12
SciTegic.value.DoubleValue
5.980

@<SCITEGIC>MOL_PROPERTY
Bond
SciTegic.value.DoubleValue
0.198

@<SCITEGIC>MOL_PROPERTY
Angle
SciTegic.value.DoubleValue
1.369

@<SCITEGIC>MOL_PROPERTY
Pdih
SciTegic.value.DoubleValue
2.230

@<SCITEGIC>MOL_PROPERTY
Idih
SciTegic.value.DoubleValue
0.000

@<SCITEGIC>MOL_PROPERTY
Tether
SciTegic.value.DoubleValue
0.000

@<TRIPOS>MOLECULE
guest-s11_confgen4.mol2 : confsearch ligand conformer 623
          20          19           1
SMALL
USER_CHARGES
 
@<TRIPOS>ATOM
       1    N1      21.040761   19.806636   24.098035 N.4        1 MOL1        -0.5919
       2    H1      21.964877   19.693272   24.527966 H          1 MOL1         0.3682
       3    H2      21.176748   20.284830   23.202176 H          1 MOL1         0.3682
       4    H3      20.506170   20.438170   24.702835 H          1 MOL1         0.3682
       5    C1      20.337899   18.475683   23.913364 C.3        1 MOL1         0.0252
       6    H4      20.228742   18.031598   24.906537 H          1 MOL1         0.0971
       7    H5      20.978687   17.820344   23.317444 H          1 MOL1         0.0971
       8    C2      18.947151   18.587353   23.256279 C.3        1 MOL1        -0.1369
       9    H6      18.371872   17.695945   23.539576 H          1 MOL1         0.0997
      10    H7      18.402683   19.441078   23.681152 H          1 MOL1         0.0997
      11    C3      18.953073   18.673867   21.706330 C.3        1 MOL1        -0.1329
      12    H8      17.905595   18.692695   21.374727 H          1 MOL1         0.0997
      13    H9      19.378351   17.753990   21.281560 H          1 MOL1         0.0997
      14    C4      19.666916   19.914188   21.110886 C.3        1 MOL1        -0.1305
      15    H10     19.122385   20.232708   20.210726 H          1 MOL1         0.0997
      16    H11     19.608355   20.762170   21.806415 H          1 MOL1         0.0997
      17    C5      21.132499   19.633770   20.701924 C.3        1 MOL1        -0.2320
      18    H12     21.731611   19.241632   21.530711 H          1 MOL1         0.1008
      19    H13     21.172106   18.895830   19.890013 H          1 MOL1         0.1008
      20    H14     21.614946   20.550457   20.338454 H          1 MOL1         0.1008
@<TRIPOS>BOND
    1     1     2    1
    2     1     3    1
    3     1     4    1
    4     1     5    1
    5     5     6    1
    6     5     7    1
    7     5     8    1
    8     8     9    1
    9     8    10    1
   10     8    11    1
   11    11    12    1
   12    11    13    1
   13    11    14    1
   14    14    15    1
   15    14    16    1
   16    14    17    1
   17    17    18    1
   18    17    19    1
   19    17    20    1
@<TRIPOS>SUBSTRUCTURE
       1 MOL1            1 RESIDUE      1      MOL     
@<SCITEGIC>MOL_PROPERTY
VConf Rank
SciTegic.value.IntegerValue
623

@<SCITEGIC>MOL_PROPERTY
Conf_Id
SciTegic.value.IntegerValue
77

@<SCITEGIC>MOL_PROPERTY
Delta U+W
SciTegic.value.DoubleValue
5.366

@<SCITEGIC>MOL_PROPERTY
U+W
SciTegic.value.DoubleValue
-6.412

@<SCITEGIC>MOL_PROPERTY
Grad RMS
SciTegic.value.DoubleValue
0.000000

@<SCITEGIC>MOL_PROPERTY
U
SciTegic.value.DoubleValue
51.542

@<SCITEGIC>MOL_PROPERTY
W
SciTegic.value.DoubleValue
-57.954

@<SCITEGIC>MOL_PROPERTY
W(PB)
SciTegic.value.DoubleValue
-59.811

@<SCITEGIC>MOL_PROPERTY
W(SA)
SciTegic.value.DoubleValue
1.857

@<SCITEGIC>MOL_PROPERTY
Valence
SciTegic.value.DoubleValue
5.347

@<SCITEGIC>MOL_PROPERTY
Coulomb
SciTegic.value.DoubleValue
45.870

@<SCITEGIC>MOL_PROPERTY
VdW
SciTegic.value.DoubleValue
0.325

@<SCITEGIC>MOL_PROPERTY
VdW6
SciTegic.value.DoubleValue
-6.161

@<SCITEGIC>MOL_PROPERTY
VdW12
SciTegic.value.DoubleValue
6.486

@<SCITEGIC>MOL_PROPERTY
Bond
SciTegic.value.DoubleValue
0.201

@<SCITEGIC>MOL_PROPERTY
Angle
SciTegic.value.DoubleValue
1.484

@<SCITEGIC>MOL_PROPERTY
Pdih
SciTegic.value.DoubleValue
3.662

@<SCITEGIC>MOL_PROPERTY
Idih
SciTegic.value.DoubleValue
0.000

@<SCITEGIC>MOL_PROPERTY
Tether
SciTegic.value.DoubleValue
0.000

@<TRIPOS>MOLECULE
guest-s11_confgen4.mol2 : confsearch ligand conformer 624
          20          19           1
SMALL
USER_CHARGES
 
@<TRIPOS>ATOM
       1    N1      18.438913   19.823664   22.839789 N.4        1 MOL1        -0.5919
       2    H1      17.867933   20.037521   22.015984 H          1 MOL1         0.3682
       3    H2      18.593040   18.810807   22.849383 H          1 MOL1         0.3682
       4    H3      17.872945   20.055059   23.663087 H          1 MOL1         0.3682
       5    C1      19.751637   20.582707   22.826764 C.3        1 MOL1         0.0252
       6    H4      20.289247   20.369614   23.754540 H          1 MOL1         0.0971
       7    H5      19.504653   21.647779   22.814872 H          1 MOL1         0.0971
       8    C2      20.649665   20.260675   21.615049 C.3        1 MOL1        -0.1369
       9    H6      20.039012   20.204924   20.704114 H          1 MOL1         0.0997
      10    H7      21.328341   21.111225   21.467482 H          1 MOL1         0.0997
      11    C3      21.517848   18.981593   21.756718 C.3        1 MOL1        -0.1329
      12    H8      22.223390   19.098415   22.591001 H          1 MOL1         0.0997
      13    H9      22.140766   18.906239   20.854598 H          1 MOL1         0.0997
      14    C4      20.730405   17.655092   21.907882 C.3        1 MOL1        -0.1305
      15    H10     19.758636   17.725016   21.400894 H          1 MOL1         0.0997
      16    H11     21.280036   16.860271   21.384026 H          1 MOL1         0.0997
      17    C5      20.555866   17.216537   23.381322 C.3        1 MOL1        -0.2320
      18    H12     19.946846   16.305321   23.444263 H          1 MOL1         0.1008
      19    H13     21.530229   16.994240   23.835768 H          1 MOL1         0.1008
      20    H14     20.076465   17.987170   23.994423 H          1 MOL1         0.1008
@<TRIPOS>BOND
    1     1     2    1
    2     1     3    1
    3     1     4    1
    4     1     5    1
    5     5     6    1
    6     5     7    1
    7     5     8    1
    8     8     9    1
    9     8    10    1
   10     8    11    1
   11    11    12    1
   12    11    13    1
   13    11    14    1
   14    14    15    1
   15    14    16    1
   16    14    17    1
   17    17    18    1
   18    17    19    1
   19    17    20    1
@<TRIPOS>SUBSTRUCTURE
       1 MOL1            1 RESIDUE      1      MOL     
@<SCITEGIC>MOL_PROPERTY
VConf Rank
SciTegic.value.IntegerValue
624

@<SCITEGIC>MOL_PROPERTY
Conf_Id
SciTegic.value.IntegerValue
67

@<SCITEGIC>MOL_PROPERTY
Delta U+W
SciTegic.value.DoubleValue
5.353

@<SCITEGIC>MOL_PROPERTY
U+W
SciTegic.value.DoubleValue
-6.425

@<SCITEGIC>MOL_PROPERTY
Grad RMS
SciTegic.value.DoubleValue
0.000000

@<SCITEGIC>MOL_PROPERTY
U
SciTegic.value.DoubleValue
51.541

@<SCITEGIC>MOL_PROPERTY
W
SciTegic.value.DoubleValue
-57.966

@<SCITEGIC>MOL_PROPERTY
W(PB)
SciTegic.value.DoubleValue
-59.821

@<SCITEGIC>MOL_PROPERTY
W(SA)
SciTegic.value.DoubleValue
1.855

@<SCITEGIC>MOL_PROPERTY
Valence
SciTegic.value.DoubleValue
5.347

@<SCITEGIC>MOL_PROPERTY
Coulomb
SciTegic.value.DoubleValue
45.870

@<SCITEGIC>MOL_PROPERTY
VdW
SciTegic.value.DoubleValue
0.325

@<SCITEGIC>MOL_PROPERTY
VdW6
SciTegic.value.DoubleValue
-6.161

@<SCITEGIC>MOL_PROPERTY
VdW12
SciTegic.value.DoubleValue
6.486

@<SCITEGIC>MOL_PROPERTY
Bond
SciTegic.value.DoubleValue
0.201

@<SCITEGIC>MOL_PROPERTY
Angle
SciTegic.value.DoubleValue
1.485

@<SCITEGIC>MOL_PROPERTY
Pdih
SciTegic.value.DoubleValue
3.662

@<SCITEGIC>MOL_PROPERTY
Idih
SciTegic.value.DoubleValue
0.000

@<SCITEGIC>MOL_PROPERTY
Tether
SciTegic.value.DoubleValue
0.000

@<TRIPOS>MOLECULE
guest-s11_confgen4.mol2 : confsearch ligand conformer 625
          20          19           1
SMALL
USER_CHARGES
 
@<TRIPOS>ATOM
       1    N1      20.758581   18.574725   19.356442 N.4        1 MOL1        -0.5919
       2    H1      20.353825   17.635021   19.297137 H          1 MOL1         0.3682
       3    H2      20.573449   19.035172   18.459049 H          1 MOL1         0.3682
       4    H3      21.774638   18.461085   19.427873 H          1 MOL1         0.3682
       5    C1      20.193265   19.362771   20.520868 C.3        1 MOL1         0.0252
       6    H4      19.116554   19.470851   20.364248 H          1 MOL1         0.0971
       7    H5      20.644060   20.358786   20.504913 H          1 MOL1         0.0971
       8    C2      20.454020   18.698154   21.884523 C.3        1 MOL1        -0.1369
       9    H6      20.013468   17.692198   21.890398 H          1 MOL1         0.0997
      10    H7      21.535717   18.577066   22.030593 H          1 MOL1         0.0997
      11    C3      19.862639   19.531985   23.042852 C.3        1 MOL1        -0.1329
      12    H8      18.781262   19.655590   22.890746 H          1 MOL1         0.0997
      13    H9      20.301744   20.539374   23.030834 H          1 MOL1         0.0997
      14    C4      20.118418   18.874052   24.417348 C.3        1 MOL1        -0.1305
      15    H10     19.678935   17.866773   24.434423 H          1 MOL1         0.0997
      16    H11     21.199194   18.750517   24.574545 H          1 MOL1         0.0997
      17    C5      19.525784   19.710522   25.571505 C.3        1 MOL1        -0.2320
      18    H12     18.439343   19.822708   25.460707 H          1 MOL1         0.1008
      19    H13     19.717333   19.227536   26.538499 H          1 MOL1         0.1008
      20    H14     19.971562   20.713300   25.602018 H          1 MOL1         0.1008
@<TRIPOS>BOND
    1     1     2    1
    2     1     3    1
    3     1     4    1
    4     1     5    1
    5     5     6    1
    6     5     7    1
    7     5     8    1
    8     8     9    1
    9     8    10    1
   10     8    11    1
   11    11    12    1
   12    11    13    1
   13    11    14    1
   14    14    15    1
   15    14    16    1
   16    14    17    1
   17    17    18    1
   18    17    19    1
   19    17    20    1
@<TRIPOS>SUBSTRUCTURE
       1 MOL1            1 RESIDUE      1      MOL     
@<SCITEGIC>MOL_PROPERTY
VConf Rank
SciTegic.value.IntegerValue
625

@<SCITEGIC>MOL_PROPERTY
Conf_Id
SciTegic.value.IntegerValue
72

@<SCITEGIC>MOL_PROPERTY
Delta U+W
SciTegic.value.DoubleValue
0.000

@<SCITEGIC>MOL_PROPERTY
U+W
SciTegic.value.DoubleValue
-11.778

@<SCITEGIC>MOL_PROPERTY
Grad RMS
SciTegic.value.DoubleValue
0.000000

@<SCITEGIC>MOL_PROPERTY
U
SciTegic.value.DoubleValue
45.772

@<SCITEGIC>MOL_PROPERTY
W
SciTegic.value.DoubleValue
-57.550

@<SCITEGIC>MOL_PROPERTY
W(PB)
SciTegic.value.DoubleValue
-59.511

@<SCITEGIC>MOL_PROPERTY
W(SA)
SciTegic.value.DoubleValue
1.961

@<SCITEGIC>MOL_PROPERTY
Valence
SciTegic.value.DoubleValue
1.299

@<SCITEGIC>MOL_PROPERTY
Coulomb
SciTegic.value.DoubleValue
44.177

@<SCITEGIC>MOL_PROPERTY
VdW
SciTegic.value.DoubleValue
0.297

@<SCITEGIC>MOL_PROPERTY
VdW6
SciTegic.value.DoubleValue
-3.490

@<SCITEGIC>MOL_PROPERTY
VdW12
SciTegic.value.DoubleValue
3.786

@<SCITEGIC>MOL_PROPERTY
Bond
SciTegic.value.DoubleValue
0.096

@<SCITEGIC>MOL_PROPERTY
Angle
SciTegic.value.DoubleValue
0.381

@<SCITEGIC>MOL_PROPERTY
Pdih
SciTegic.value.DoubleValue
0.822

@<SCITEGIC>MOL_PROPERTY
Idih
SciTegic.value.DoubleValue
0.000

@<SCITEGIC>MOL_PROPERTY
Tether
SciTegic.value.DoubleValue
0.000

@<TRIPOS>MOLECULE
guest-s11_confgen4.mol2 : confsearch ligand conformer 626
          20          19           1
SMALL
USER_CHARGES
 
@<TRIPOS>ATOM
       1    N1      19.976294   19.018553   19.484686 N.4        1 MOL1        -0.5919
       2    H1      19.490626   18.117170   19.529088 H          1 MOL1         0.3682
       3    H2      19.261899   19.738945   19.339641 H          1 MOL1         0.3682
       4    H3      20.557235   19.001817   18.639814 H          1 MOL1         0.3682
       5    C1      20.800240   19.280277   20.729350 C.3        1 MOL1         0.0252
       6    H4      21.311490   20.238111   20.600232 H          1 MOL1         0.0971
       7    H5      21.557045   18.494726   20.804594 H          1 MOL1         0.0971
       8    C2      19.957805   19.312455   22.017192 C.3        1 MOL1        -0.1369
       9    H6      19.189088   20.091837   21.930876 H          1 MOL1         0.0997
      10    H7      19.435805   18.353555   22.127165 H          1 MOL1         0.0997
      11    C3      20.837849   19.584322   23.260067 C.3        1 MOL1        -0.1329
      12    H8      21.409858   20.508616   23.098112 H          1 MOL1         0.0997
      13    H9      21.577651   18.779629   23.372979 H          1 MOL1         0.0997
      14    C4      20.027496   19.730095   24.571078 C.3        1 MOL1        -0.1305
      15    H10     20.712906   20.023755   25.378490 H          1 MOL1         0.0997
      16    H11     19.302413   20.549911   24.470910 H          1 MOL1         0.0997
      17    C5      19.293469   18.434965   24.987457 C.3        1 MOL1        -0.2320
      18    H12     19.992773   17.592572   25.067227 H          1 MOL1         0.1008
      19    H13     18.811484   18.564090   25.965194 H          1 MOL1         0.1008
      20    H14     18.510600   18.165496   24.267787 H          1 MOL1         0.1008
@<TRIPOS>BOND
    1     1     2    1
    2     1     3    1
    3     1     4    1
    4     1     5    1
    5     5     6    1
    6     5     7    1
    7     5     8    1
    8     8     9    1
    9     8    10    1
   10     8    11    1
   11    11    12    1
   12    11    13    1
   13    11    14    1
   14    14    15    1
   15    14    16    1
   16    14    17    1
   17    17    18    1
   18    17    19    1
   19    17    20    1
@<TRIPOS>SUBSTRUCTURE
       1 MOL1            1 RESIDUE      1      MOL     
@<SCITEGIC>MOL_PROPERTY
VConf Rank
SciTegic.value.IntegerValue
626

@<SCITEGIC>MOL_PROPERTY
Conf_Id
SciTegic.value.IntegerValue
42

@<SCITEGIC>MOL_PROPERTY
Delta U+W
SciTegic.value.DoubleValue
0.508

@<SCITEGIC>MOL_PROPERTY
U+W
SciTegic.value.DoubleValue
-11.270

@<SCITEGIC>MOL_PROPERTY
Grad RMS
SciTegic.value.DoubleValue
0.000000

@<SCITEGIC>MOL_PROPERTY
U
SciTegic.value.DoubleValue
46.486

@<SCITEGIC>MOL_PROPERTY
W
SciTegic.value.DoubleValue
-57.756

@<SCITEGIC>MOL_PROPERTY
W(PB)
SciTegic.value.DoubleValue
-59.705

@<SCITEGIC>MOL_PROPERTY
W(SA)
SciTegic.value.DoubleValue
1.949

@<SCITEGIC>MOL_PROPERTY
Valence
SciTegic.value.DoubleValue
1.806

@<SCITEGIC>MOL_PROPERTY
Coulomb
SciTegic.value.DoubleValue
44.248

@<SCITEGIC>MOL_PROPERTY
VdW
SciTegic.value.DoubleValue
0.433

@<SCITEGIC>MOL_PROPERTY
VdW6
SciTegic.value.DoubleValue
-4.089

@<SCITEGIC>MOL_PROPERTY
VdW12
SciTegic.value.DoubleValue
4.522

@<SCITEGIC>MOL_PROPERTY
Bond
SciTegic.value.DoubleValue
0.131

@<SCITEGIC>MOL_PROPERTY
Angle
SciTegic.value.DoubleValue
0.628

@<SCITEGIC>MOL_PROPERTY
Pdih
SciTegic.value.DoubleValue
1.047

@<SCITEGIC>MOL_PROPERTY
Idih
SciTegic.value.DoubleValue
0.000

@<SCITEGIC>MOL_PROPERTY
Tether
SciTegic.value.DoubleValue
0.000

@<TRIPOS>MOLECULE
guest-s11_confgen4.mol2 : confsearch ligand conformer 627
          20          19           1
SMALL
USER_CHARGES
 
@<TRIPOS>ATOM
       1    N1      22.382536   20.689415   21.295051 N.4        1 MOL1        -0.5919
       2    H1      22.658251   21.184573   22.148962 H          1 MOL1         0.3682
       3    H2      22.982090   19.861642   21.219805 H          1 MOL1         0.3682
       4    H3      22.620132   21.301079   20.507018 H          1 MOL1         0.3682
       5    C1      20.911551   20.325073   21.301330 C.3        1 MOL1         0.0252
       6    H4      20.682376   19.829796   20.353867 H          1 MOL1         0.0971
       7    H5      20.334542   21.252418   21.352173 H          1 MOL1         0.0971
       8    C2      20.520414   19.406927   22.473205 C.3        1 MOL1        -0.1369
       9    H6      21.117825   18.487917   22.422348 H          1 MOL1         0.0997
      10    H7      20.766857   19.901523   23.422127 H          1 MOL1         0.0997
      11    C3      19.012442   19.063219   22.441314 C.3        1 MOL1        -0.1329
      12    H8      18.774541   18.527171   21.511991 H          1 MOL1         0.0997
      13    H9      18.433213   19.996805   22.415741 H          1 MOL1         0.0997
      14    C4      18.543669   18.226036   23.656240 C.3        1 MOL1        -0.1305
      15    H10     18.758096   18.769302   24.587239 H          1 MOL1         0.0997
      16    H11     17.450996   18.117469   23.609161 H          1 MOL1         0.0997
      17    C5      19.181670   16.819321   23.716574 C.3        1 MOL1        -0.2320
      18    H12     20.264249   16.873968   23.885278 H          1 MOL1         0.1008
      19    H13     18.749191   16.236469   24.540102 H          1 MOL1         0.1008
      20    H14     19.005699   16.265290   22.785393 H          1 MOL1         0.1008
@<TRIPOS>BOND
    1     1     2    1
    2     1     3    1
    3     1     4    1
    4     1     5    1
    5     5     6    1
    6     5     7    1
    7     5     8    1
    8     8     9    1
    9     8    10    1
   10     8    11    1
   11    11    12    1
   12    11    13    1
   13    11    14    1
   14    14    15    1
   15    14    16    1
   16    14    17    1
   17    17    18    1
   18    17    19    1
   19    17    20    1
@<TRIPOS>SUBSTRUCTURE
       1 MOL1            1 RESIDUE      1      MOL     
@<SCITEGIC>MOL_PROPERTY
VConf Rank
SciTegic.value.IntegerValue
627

@<SCITEGIC>MOL_PROPERTY
Conf_Id
SciTegic.value.IntegerValue
41

@<SCITEGIC>MOL_PROPERTY
Delta U+W
SciTegic.value.DoubleValue
0.515

@<SCITEGIC>MOL_PROPERTY
U+W
SciTegic.value.DoubleValue
-11.263

@<SCITEGIC>MOL_PROPERTY
Grad RMS
SciTegic.value.DoubleValue
0.000000

@<SCITEGIC>MOL_PROPERTY
U
SciTegic.value.DoubleValue
46.486

@<SCITEGIC>MOL_PROPERTY
W
SciTegic.value.DoubleValue
-57.749

@<SCITEGIC>MOL_PROPERTY
W(PB)
SciTegic.value.DoubleValue
-59.685

@<SCITEGIC>MOL_PROPERTY
W(SA)
SciTegic.value.DoubleValue
1.936

@<SCITEGIC>MOL_PROPERTY
Valence
SciTegic.value.DoubleValue
1.806

@<SCITEGIC>MOL_PROPERTY
Coulomb
SciTegic.value.DoubleValue
44.248

@<SCITEGIC>MOL_PROPERTY
VdW
SciTegic.value.DoubleValue
0.433

@<SCITEGIC>MOL_PROPERTY
VdW6
SciTegic.value.DoubleValue
-4.089

@<SCITEGIC>MOL_PROPERTY
VdW12
SciTegic.value.DoubleValue
4.522

@<SCITEGIC>MOL_PROPERTY
Bond
SciTegic.value.DoubleValue
0.131

@<SCITEGIC>MOL_PROPERTY
Angle
SciTegic.value.DoubleValue
0.628

@<SCITEGIC>MOL_PROPERTY
Pdih
SciTegic.value.DoubleValue
1.047

@<SCITEGIC>MOL_PROPERTY
Idih
SciTegic.value.DoubleValue
0.000

@<SCITEGIC>MOL_PROPERTY
Tether
SciTegic.value.DoubleValue
0.000

@<TRIPOS>MOLECULE
guest-s11_confgen4.mol2 : confsearch ligand conformer 628
          20          19           1
SMALL
USER_CHARGES
 
@<TRIPOS>ATOM
       1    N1      22.906252   19.227172   22.629149 N.4        1 MOL1        -0.5919
       2    H1      23.774327   19.635916   22.990917 H          1 MOL1         0.3682
       3    H2      22.674623   18.434853   23.235381 H          1 MOL1         0.3682
       4    H3      23.120153   18.846756   21.701936 H          1 MOL1         0.3682
       5    C1      21.783872   20.245833   22.576640 C.3        1 MOL1         0.0252
       6    H4      22.120615   21.076464   21.950338 H          1 MOL1         0.0971
       7    H5      21.622994   20.627043   23.588687 H          1 MOL1         0.0971
       8    C2      20.460554   19.689056   22.015659 C.3        1 MOL1        -0.1369
       9    H6      19.759019   20.525927   21.910282 H          1 MOL1         0.0997
      10    H7      20.629088   19.291208   21.006203 H          1 MOL1         0.0997
      11    C3      19.839413   18.595857   22.921317 C.3        1 MOL1        -0.1329
      12    H8      19.652550   19.007625   23.922815 H          1 MOL1         0.0997
      13    H9      20.559738   17.777718   23.053180 H          1 MOL1         0.0997
      14    C4      18.528072   17.998273   22.355404 C.3        1 MOL1        -0.1305
      15    H10     18.712842   17.572748   21.359084 H          1 MOL1         0.0997
      16    H11     18.218985   17.159295   22.994562 H          1 MOL1         0.0997
      17    C5      17.368363   19.017575   22.278857 C.3        1 MOL1        -0.2320
      18    H12     17.577447   19.814112   21.554232 H          1 MOL1         0.1008
      19    H13     16.441409   18.521334   21.963501 H          1 MOL1         0.1008
      20    H14     17.184216   19.480985   23.256786 H          1 MOL1         0.1008
@<TRIPOS>BOND
    1     1     2    1
    2     1     3    1
    3     1     4    1
    4     1     5    1
    5     5     6    1
    6     5     7    1
    7     5     8    1
    8     8     9    1
    9     8    10    1
   10     8    11    1
   11    11    12    1
   12    11    13    1
   13    11    14    1
   14    14    15    1
   15    14    16    1
   16    14    17    1
   17    17    18    1
   18    17    19    1
   19    17    20    1
@<TRIPOS>SUBSTRUCTURE
       1 MOL1            1 RESIDUE      1      MOL     
@<SCITEGIC>MOL_PROPERTY
VConf Rank
SciTegic.value.IntegerValue
628

@<SCITEGIC>MOL_PROPERTY
Conf_Id
SciTegic.value.IntegerValue
33

@<SCITEGIC>MOL_PROPERTY
Delta U+W
SciTegic.value.DoubleValue
0.703

@<SCITEGIC>MOL_PROPERTY
U+W
SciTegic.value.DoubleValue
-11.075

@<SCITEGIC>MOL_PROPERTY
Grad RMS
SciTegic.value.DoubleValue
0.000000

@<SCITEGIC>MOL_PROPERTY
U
SciTegic.value.DoubleValue
47.080

@<SCITEGIC>MOL_PROPERTY
W
SciTegic.value.DoubleValue
-58.154

@<SCITEGIC>MOL_PROPERTY
W(PB)
SciTegic.value.DoubleValue
-60.053

@<SCITEGIC>MOL_PROPERTY
W(SA)
SciTegic.value.DoubleValue
1.899

@<SCITEGIC>MOL_PROPERTY
Valence
SciTegic.value.DoubleValue
1.943

@<SCITEGIC>MOL_PROPERTY
Coulomb
SciTegic.value.DoubleValue
44.572

@<SCITEGIC>MOL_PROPERTY
VdW
SciTegic.value.DoubleValue
0.565

@<SCITEGIC>MOL_PROPERTY
VdW6
SciTegic.value.DoubleValue
-4.575

@<SCITEGIC>MOL_PROPERTY
VdW12
SciTegic.value.DoubleValue
5.139

@<SCITEGIC>MOL_PROPERTY
Bond
SciTegic.value.DoubleValue
0.158

@<SCITEGIC>MOL_PROPERTY
Angle
SciTegic.value.DoubleValue
0.700

@<SCITEGIC>MOL_PROPERTY
Pdih
SciTegic.value.DoubleValue
1.085

@<SCITEGIC>MOL_PROPERTY
Idih
SciTegic.value.DoubleValue
0.000

@<SCITEGIC>MOL_PROPERTY
Tether
SciTegic.value.DoubleValue
0.000

@<TRIPOS>MOLECULE
guest-s11_confgen4.mol2 : confsearch ligand conformer 629
          20          19           1
SMALL
USER_CHARGES
 
@<TRIPOS>ATOM
       1    N1      20.607632   21.597820   23.615431 N.4        1 MOL1        -0.5919
       2    H1      21.109286   22.490756   23.665516 H          1 MOL1         0.3682
       3    H2      19.663734   21.765957   23.977342 H          1 MOL1         0.3682
       4    H3      21.072047   20.958131   24.266628 H          1 MOL1         0.3682
       5    C1      20.581093   21.045846   22.203064 C.3        1 MOL1         0.0252
       6    H4      21.614114   20.912236   21.870710 H          1 MOL1         0.0971
       7    H5      20.112982   21.798610   21.562893 H          1 MOL1         0.0971
       8    C2      19.816120   19.714640   22.066795 C.3        1 MOL1        -0.1369
       9    H6      18.784132   19.847493   22.417567 H          1 MOL1         0.0997
      10    H7      19.755660   19.466859   20.999763 H          1 MOL1         0.0997
      11    C3      20.494118   18.553214   22.836552 C.3        1 MOL1        -0.1329
      12    H8      20.584988   18.821661   23.897349 H          1 MOL1         0.0997
      13    H9      21.518376   18.411398   22.464729 H          1 MOL1         0.0997
      14    C4      19.720063   17.215769   22.741393 C.3        1 MOL1        -0.1305
      15    H10     20.202476   16.482074   23.402385 H          1 MOL1         0.0997
      16    H11     18.698785   17.349007   23.124935 H          1 MOL1         0.0997
      17    C5      19.666499   16.634608   21.309909 C.3        1 MOL1        -0.2320
      18    H12     20.674942   16.521139   20.891373 H          1 MOL1         0.1008
      19    H13     19.192675   15.644451   21.315153 H          1 MOL1         0.1008
      20    H14     19.083729   17.274069   20.635565 H          1 MOL1         0.1008
@<TRIPOS>BOND
    1     1     2    1
    2     1     3    1
    3     1     4    1
    4     1     5    1
    5     5     6    1
    6     5     7    1
    7     5     8    1
    8     8     9    1
    9     8    10    1
   10     8    11    1
   11    11    12    1
   12    11    13    1
   13    11    14    1
   14    14    15    1
   15    14    16    1
   16    14    17    1
   17    17    18    1
   18    17    19    1
   19    17    20    1
@<TRIPOS>SUBSTRUCTURE
       1 MOL1            1 RESIDUE      1      MOL     
@<SCITEGIC>MOL_PROPERTY
VConf Rank
SciTegic.value.IntegerValue
629

@<SCITEGIC>MOL_PROPERTY
Conf_Id
SciTegic.value.IntegerValue
24

@<SCITEGIC>MOL_PROPERTY
Delta U+W
SciTegic.value.DoubleValue
0.847

@<SCITEGIC>MOL_PROPERTY
U+W
SciTegic.value.DoubleValue
-10.931

@<SCITEGIC>MOL_PROPERTY
Grad RMS
SciTegic.value.DoubleValue
0.000000

@<SCITEGIC>MOL_PROPERTY
U
SciTegic.value.DoubleValue
47.080

@<SCITEGIC>MOL_PROPERTY
W
SciTegic.value.DoubleValue
-58.011

@<SCITEGIC>MOL_PROPERTY
W(PB)
SciTegic.value.DoubleValue
-59.914

@<SCITEGIC>MOL_PROPERTY
W(SA)
SciTegic.value.DoubleValue
1.903

@<SCITEGIC>MOL_PROPERTY
Valence
SciTegic.value.DoubleValue
1.943

@<SCITEGIC>MOL_PROPERTY
Coulomb
SciTegic.value.DoubleValue
44.572

@<SCITEGIC>MOL_PROPERTY
VdW
SciTegic.value.DoubleValue
0.565

@<SCITEGIC>MOL_PROPERTY
VdW6
SciTegic.value.DoubleValue
-4.575

@<SCITEGIC>MOL_PROPERTY
VdW12
SciTegic.value.DoubleValue
5.140

@<SCITEGIC>MOL_PROPERTY
Bond
SciTegic.value.DoubleValue
0.158

@<SCITEGIC>MOL_PROPERTY
Angle
SciTegic.value.DoubleValue
0.700

@<SCITEGIC>MOL_PROPERTY
Pdih
SciTegic.value.DoubleValue
1.085

@<SCITEGIC>MOL_PROPERTY
Idih
SciTegic.value.DoubleValue
0.000

@<SCITEGIC>MOL_PROPERTY
Tether
SciTegic.value.DoubleValue
0.000

@<TRIPOS>MOLECULE
guest-s11_confgen4.mol2 : confsearch ligand conformer 630
          20          19           1
SMALL
USER_CHARGES
 
@<TRIPOS>ATOM
       1    N1      18.176212   18.807754   24.374241 N.4        1 MOL1        -0.5919
       2    H1      18.282483   18.364450   25.292760 H          1 MOL1         0.3682
       3    H2      18.091337   19.815724   24.538598 H          1 MOL1         0.3682
       4    H3      17.280455   18.488341   23.992268 H          1 MOL1         0.3682
       5    C1      19.333798   18.479383   23.453104 C.3        1 MOL1         0.0252
       6    H4      19.382870   17.392405   23.346110 H          1 MOL1         0.0971
       7    H5      20.253835   18.819423   23.935689 H          1 MOL1         0.0971
       8    C2      19.205229   19.131243   22.063437 C.3        1 MOL1        -0.1369
       9    H6      18.258492   18.815867   21.605192 H          1 MOL1         0.0997
      10    H7      19.146702   20.221935   22.170303 H          1 MOL1         0.0997
      11    C3      20.369732   18.753551   21.114081 C.3        1 MOL1        -0.1329
      12    H8      20.209236   19.240390   20.142231 H          1 MOL1         0.0997
      13    H9      20.334925   17.672591   20.919645 H          1 MOL1         0.0997
      14    C4      21.781822   19.120782   21.637882 C.3        1 MOL1        -0.1305
      15    H10     22.003458   18.560743   22.556582 H          1 MOL1         0.0997
      16    H11     22.525852   18.792645   20.898540 H          1 MOL1         0.0997
      17    C5      21.968138   20.633681   21.893680 C.3        1 MOL1        -0.2320
      18    H12     23.007330   20.851372   22.172236 H          1 MOL1         0.1008
      19    H13     21.732275   21.218145   20.994933 H          1 MOL1         0.1008
      20    H14     21.327099   20.985869   22.711402 H          1 MOL1         0.1008
@<TRIPOS>BOND
    1     1     2    1
    2     1     3    1
    3     1     4    1
    4     1     5    1
    5     5     6    1
    6     5     7    1
    7     5     8    1
    8     8     9    1
    9     8    10    1
   10     8    11    1
   11    11    12    1
   12    11    13    1
   13    11    14    1
   14    14    15    1
   15    14    16    1
   16    14    17    1
   17    17    18    1
   18    17    19    1
   19    17    20    1
@<TRIPOS>SUBSTRUCTURE
       1 MOL1            1 RESIDUE      1      MOL     
@<SCITEGIC>MOL_PROPERTY
VConf Rank
SciTegic.value.IntegerValue
630

@<SCITEGIC>MOL_PROPERTY
Conf_Id
SciTegic.value.IntegerValue
64

@<SCITEGIC>MOL_PROPERTY
Delta U+W
SciTegic.value.DoubleValue
0.707

@<SCITEGIC>MOL_PROPERTY
U+W
SciTegic.value.DoubleValue
-11.070

@<SCITEGIC>MOL_PROPERTY
Grad RMS
SciTegic.value.DoubleValue
0.000000

@<SCITEGIC>MOL_PROPERTY
U
SciTegic.value.DoubleValue
47.077

@<SCITEGIC>MOL_PROPERTY
W
SciTegic.value.DoubleValue
-58.148

@<SCITEGIC>MOL_PROPERTY
W(PB)
SciTegic.value.DoubleValue
-60.054

@<SCITEGIC>MOL_PROPERTY
W(SA)
SciTegic.value.DoubleValue
1.906

@<SCITEGIC>MOL_PROPERTY
Valence
SciTegic.value.DoubleValue
2.039

@<SCITEGIC>MOL_PROPERTY
Coulomb
SciTegic.value.DoubleValue
44.655

@<SCITEGIC>MOL_PROPERTY
VdW
SciTegic.value.DoubleValue
0.383

@<SCITEGIC>MOL_PROPERTY
VdW6
SciTegic.value.DoubleValue
-4.912

@<SCITEGIC>MOL_PROPERTY
VdW12
SciTegic.value.DoubleValue
5.295

@<SCITEGIC>MOL_PROPERTY
Bond
SciTegic.value.DoubleValue
0.159

@<SCITEGIC>MOL_PROPERTY
Angle
SciTegic.value.DoubleValue
0.856

@<SCITEGIC>MOL_PROPERTY
Pdih
SciTegic.value.DoubleValue
1.024

@<SCITEGIC>MOL_PROPERTY
Idih
SciTegic.value.DoubleValue
0.000

@<SCITEGIC>MOL_PROPERTY
Tether
SciTegic.value.DoubleValue
0.000

@<TRIPOS>MOLECULE
guest-s11_confgen4.mol2 : confsearch ligand conformer 631
          20          19           1
SMALL
USER_CHARGES
 
@<TRIPOS>ATOM
       1    N1      22.316908   18.002216   21.099060 N.4        1 MOL1        -0.5919
       2    H1      22.309313   18.208913   20.095304 H          1 MOL1         0.3682
       3    H2      22.968974   18.660297   21.537193 H          1 MOL1         0.3682
       4    H3      22.721712   17.066232   21.206565 H          1 MOL1         0.3682
       5    C1      20.930934   18.089461   21.705517 C.3        1 MOL1         0.0252
       6    H4      21.010581   17.828604   22.764099 H          1 MOL1         0.0971
       7    H5      20.299393   17.344417   21.214148 H          1 MOL1         0.0971
       8    C2      20.293925   19.484469   21.561322 C.3        1 MOL1        -0.1369
       9    H6      20.931728   20.234431   22.046318 H          1 MOL1         0.0997
      10    H7      20.256824   19.753936   20.497475 H          1 MOL1         0.0997
      11    C3      18.859989   19.551830   22.143806 C.3        1 MOL1        -0.1329
      12    H8      18.207410   18.885634   21.562587 H          1 MOL1         0.0997
      13    H9      18.463330   20.565983   21.997452 H          1 MOL1         0.0997
      14    C4      18.748247   19.175412   23.643488 C.3        1 MOL1        -0.1305
      15    H10     17.692667   19.239043   23.942796 H          1 MOL1         0.0997
      16    H11     19.041110   18.127490   23.794706 H          1 MOL1         0.0997
      17    C5      19.584077   20.087567   24.569971 C.3        1 MOL1        -0.2320
      18    H12     19.324468   21.143959   24.422953 H          1 MOL1         0.1008
      19    H13     19.398079   19.839841   25.623034 H          1 MOL1         0.1008
      20    H14     20.659545   19.968897   24.388526 H          1 MOL1         0.1008
@<TRIPOS>BOND
    1     1     2    1
    2     1     3    1
    3     1     4    1
    4     1     5    1
    5     5     6    1
    6     5     7    1
    7     5     8    1
    8     8     9    1
    9     8    10    1
   10     8    11    1
   11    11    12    1
   12    11    13    1
   13    11    14    1
   14    14    15    1
   15    14    16    1
   16    14    17    1
   17    17    18    1
   18    17    19    1
   19    17    20    1
@<TRIPOS>SUBSTRUCTURE
       1 MOL1            1 RESIDUE      1      MOL     
@<SCITEGIC>MOL_PROPERTY
VConf Rank
SciTegic.value.IntegerValue
631

@<SCITEGIC>MOL_PROPERTY
Conf_Id
SciTegic.value.IntegerValue
22

@<SCITEGIC>MOL_PROPERTY
Delta U+W
SciTegic.value.DoubleValue
0.731

@<SCITEGIC>MOL_PROPERTY
U+W
SciTegic.value.DoubleValue
-11.047

@<SCITEGIC>MOL_PROPERTY
Grad RMS
SciTegic.value.DoubleValue
0.000000

@<SCITEGIC>MOL_PROPERTY
U
SciTegic.value.DoubleValue
47.078

@<SCITEGIC>MOL_PROPERTY
W
SciTegic.value.DoubleValue
-58.125

@<SCITEGIC>MOL_PROPERTY
W(PB)
SciTegic.value.DoubleValue
-60.031

@<SCITEGIC>MOL_PROPERTY
W(SA)
SciTegic.value.DoubleValue
1.906

@<SCITEGIC>MOL_PROPERTY
Valence
SciTegic.value.DoubleValue
2.039

@<SCITEGIC>MOL_PROPERTY
Coulomb
SciTegic.value.DoubleValue
44.655

@<SCITEGIC>MOL_PROPERTY
VdW
SciTegic.value.DoubleValue
0.383

@<SCITEGIC>MOL_PROPERTY
VdW6
SciTegic.value.DoubleValue
-4.913

@<SCITEGIC>MOL_PROPERTY
VdW12
SciTegic.value.DoubleValue
5.296

@<SCITEGIC>MOL_PROPERTY
Bond
SciTegic.value.DoubleValue
0.159

@<SCITEGIC>MOL_PROPERTY
Angle
SciTegic.value.DoubleValue
0.856

@<SCITEGIC>MOL_PROPERTY
Pdih
SciTegic.value.DoubleValue
1.024

@<SCITEGIC>MOL_PROPERTY
Idih
SciTegic.value.DoubleValue
0.000

@<SCITEGIC>MOL_PROPERTY
Tether
SciTegic.value.DoubleValue
0.000

@<TRIPOS>MOLECULE
guest-s11_confgen4.mol2 : confsearch ligand conformer 632
          20          19           1
SMALL
USER_CHARGES
 
@<TRIPOS>ATOM
       1    N1      17.431499   19.075213   22.306008 N.4        1 MOL1        -0.5919
       2    H1      17.304635   18.509246   21.461069 H          1 MOL1         0.3682
       3    H2      17.000857   18.560545   23.080589 H          1 MOL1         0.3682
       4    H3      16.881787   19.931026   22.176034 H          1 MOL1         0.3682
       5    C1      18.892537   19.378624   22.570435 C.3        1 MOL1         0.0252
       6    H4      18.951645   20.004544   23.464933 H          1 MOL1         0.0971
       7    H5      19.271565   19.950298   21.720262 H          1 MOL1         0.0971
       8    C2      19.746786   18.113235   22.764655 C.3        1 MOL1        -0.1369
       9    H6      19.283965   17.490739   23.541970 H          1 MOL1         0.0997
      10    H7      19.733264   17.517892   21.842066 H          1 MOL1         0.0997
      11    C3      21.212857   18.401965   23.175973 C.3        1 MOL1        -0.1329
      12    H8      21.696204   17.435180   23.374104 H          1 MOL1         0.0997
      13    H9      21.238461   18.947207   24.129600 H          1 MOL1         0.0997
      14    C4      22.055417   19.148856   22.109467 C.3        1 MOL1        -0.1305
      15    H10     23.108799   18.863855   22.240857 H          1 MOL1         0.0997
      16    H11     21.776397   18.814608   21.100424 H          1 MOL1         0.0997
      17    C5      21.967382   20.690110   22.207556 C.3        1 MOL1        -0.2320
      18    H12     20.959871   21.063371   21.996671 H          1 MOL1         0.1008
      19    H13     22.257408   21.038234   23.207406 H          1 MOL1         0.1008
      20    H14     22.647271   21.157863   21.483718 H          1 MOL1         0.1008
@<TRIPOS>BOND
    1     1     2    1
    2     1     3    1
    3     1     4    1
    4     1     5    1
    5     5     6    1
    6     5     7    1
    7     5     8    1
    8     8     9    1
    9     8    10    1
   10     8    11    1
   11    11    12    1
   12    11    13    1
   13    11    14    1
   14    14    15    1
   15    14    16    1
   16    14    17    1
   17    17    18    1
   18    17    19    1
   19    17    20    1
@<TRIPOS>SUBSTRUCTURE
       1 MOL1            1 RESIDUE      1      MOL     
@<SCITEGIC>MOL_PROPERTY
VConf Rank
SciTegic.value.IntegerValue
632

@<SCITEGIC>MOL_PROPERTY
Conf_Id
SciTegic.value.IntegerValue
61

@<SCITEGIC>MOL_PROPERTY
Delta U+W
SciTegic.value.DoubleValue
2.669

@<SCITEGIC>MOL_PROPERTY
U+W
SciTegic.value.DoubleValue
-9.108

@<SCITEGIC>MOL_PROPERTY
Grad RMS
SciTegic.value.DoubleValue
0.000000

@<SCITEGIC>MOL_PROPERTY
U
SciTegic.value.DoubleValue
48.916

@<SCITEGIC>MOL_PROPERTY
W
SciTegic.value.DoubleValue
-58.025

@<SCITEGIC>MOL_PROPERTY
W(PB)
SciTegic.value.DoubleValue
-59.935

@<SCITEGIC>MOL_PROPERTY
W(SA)
SciTegic.value.DoubleValue
1.911

@<SCITEGIC>MOL_PROPERTY
Valence
SciTegic.value.DoubleValue
3.785

@<SCITEGIC>MOL_PROPERTY
Coulomb
SciTegic.value.DoubleValue
44.716

@<SCITEGIC>MOL_PROPERTY
VdW
SciTegic.value.DoubleValue
0.415

@<SCITEGIC>MOL_PROPERTY
VdW6
SciTegic.value.DoubleValue
-4.836

@<SCITEGIC>MOL_PROPERTY
VdW12
SciTegic.value.DoubleValue
5.251

@<SCITEGIC>MOL_PROPERTY
Bond
SciTegic.value.DoubleValue
0.175

@<SCITEGIC>MOL_PROPERTY
Angle
SciTegic.value.DoubleValue
1.195

@<SCITEGIC>MOL_PROPERTY
Pdih
SciTegic.value.DoubleValue
2.415

@<SCITEGIC>MOL_PROPERTY
Idih
SciTegic.value.DoubleValue
0.000

@<SCITEGIC>MOL_PROPERTY
Tether
SciTegic.value.DoubleValue
0.000

@<TRIPOS>MOLECULE
guest-s11_confgen4.mol2 : confsearch ligand conformer 633
          20          19           1
SMALL
USER_CHARGES
 
@<TRIPOS>ATOM
       1    N1      18.338585   18.943109   21.001509 N.4        1 MOL1        -0.5919
       2    H1      17.329123   19.100392   20.912684 H          1 MOL1         0.3682
       3    H2      18.649534   18.511167   20.125701 H          1 MOL1         0.3682
       4    H3      18.470748   18.250817   21.743324 H          1 MOL1         0.3682
       5    C1      19.084719   20.231979   21.289033 C.3        1 MOL1         0.0252
       6    H4      18.674063   20.677038   22.199319 H          1 MOL1         0.0971
       7    H5      18.877658   20.911439   20.457757 H          1 MOL1         0.0971
       8    C2      20.612316   20.064937   21.430525 C.3        1 MOL1        -0.1369
       9    H6      20.990167   19.385186   20.655294 H          1 MOL1         0.0997
      10    H7      21.074737   21.039891   21.226803 H          1 MOL1         0.0997
      11    C3      21.082993   19.600466   22.832844 C.3        1 MOL1        -0.1329
      12    H8      20.746196   20.322363   23.589745 H          1 MOL1         0.0997
      13    H9      22.181321   19.629001   22.851340 H          1 MOL1         0.0997
      14    C4      20.613848   18.180943   23.229287 C.3        1 MOL1        -0.1305
      15    H10     19.525024   18.168636   23.364055 H          1 MOL1         0.0997
      16    H11     20.852753   17.470219   22.425708 H          1 MOL1         0.0997
      17    C5      21.276613   17.708971   24.541157 C.3        1 MOL1        -0.2320
      18    H12     20.926146   16.704927   24.813406 H          1 MOL1         0.1008
      19    H13     22.368981   17.667412   24.440020 H          1 MOL1         0.1008
      20    H14     21.035771   18.386139   25.371041 H          1 MOL1         0.1008
@<TRIPOS>BOND
    1     1     2    1
    2     1     3    1
    3     1     4    1
    4     1     5    1
    5     5     6    1
    6     5     7    1
    7     5     8    1
    8     8     9    1
    9     8    10    1
   10     8    11    1
   11    11    12    1
   12    11    13    1
   13    11    14    1
   14    14    15    1
   15    14    16    1
   16    14    17    1
   17    17    18    1
   18    17    19    1
   19    17    20    1
@<TRIPOS>SUBSTRUCTURE
       1 MOL1            1 RESIDUE      1      MOL     
@<SCITEGIC>MOL_PROPERTY
VConf Rank
SciTegic.value.IntegerValue
633

@<SCITEGIC>MOL_PROPERTY
Conf_Id
SciTegic.value.IntegerValue
69

@<SCITEGIC>MOL_PROPERTY
Delta U+W
SciTegic.value.DoubleValue
2.811

@<SCITEGIC>MOL_PROPERTY
U+W
SciTegic.value.DoubleValue
-8.967

@<SCITEGIC>MOL_PROPERTY
Grad RMS
SciTegic.value.DoubleValue
0.000000

@<SCITEGIC>MOL_PROPERTY
U
SciTegic.value.DoubleValue
49.216

@<SCITEGIC>MOL_PROPERTY
W
SciTegic.value.DoubleValue
-58.183

@<SCITEGIC>MOL_PROPERTY
W(PB)
SciTegic.value.DoubleValue
-60.064

@<SCITEGIC>MOL_PROPERTY
W(SA)
SciTegic.value.DoubleValue
1.881

@<SCITEGIC>MOL_PROPERTY
Valence
SciTegic.value.DoubleValue
2.929

@<SCITEGIC>MOL_PROPERTY
Coulomb
SciTegic.value.DoubleValue
46.006

@<SCITEGIC>MOL_PROPERTY
VdW
SciTegic.value.DoubleValue
0.281

@<SCITEGIC>MOL_PROPERTY
VdW6
SciTegic.value.DoubleValue
-4.909

@<SCITEGIC>MOL_PROPERTY
VdW12
SciTegic.value.DoubleValue
5.190

@<SCITEGIC>MOL_PROPERTY
Bond
SciTegic.value.DoubleValue
0.156

@<SCITEGIC>MOL_PROPERTY
Angle
SciTegic.value.DoubleValue
0.974

@<SCITEGIC>MOL_PROPERTY
Pdih
SciTegic.value.DoubleValue
1.799

@<SCITEGIC>MOL_PROPERTY
Idih
SciTegic.value.DoubleValue
0.000

@<SCITEGIC>MOL_PROPERTY
Tether
SciTegic.value.DoubleValue
0.000

@<TRIPOS>MOLECULE
guest-s11_confgen4.mol2 : confsearch ligand conformer 634
          20          19           1
SMALL
USER_CHARGES
 
@<TRIPOS>ATOM
       1    N1      18.068872   19.889991   21.587167 N.4        1 MOL1        -0.5919
       2    H1      18.597798   20.451714   22.259278 H          1 MOL1         0.3682
       3    H2      18.235217   20.292344   20.659403 H          1 MOL1         0.3682
       4    H3      17.074388   20.027587   21.796240 H          1 MOL1         0.3682
       5    C1      18.457037   18.424792   21.642743 C.3        1 MOL1         0.0252
       6    H4      17.838377   17.903865   20.906909 H          1 MOL1         0.0971
       7    H5      18.205208   18.034611   22.632531 H          1 MOL1         0.0971
       8    C2      19.943294   18.148051   21.333014 C.3        1 MOL1        -0.1369
       9    H6      20.026256   17.104345   21.001853 H          1 MOL1         0.0997
      10    H7      20.270966   18.760256   20.482338 H          1 MOL1         0.0997
      11    C3      20.899769   18.340825   22.537907 C.3        1 MOL1        -0.1329
      12    H8      21.901970   18.006877   22.235337 H          1 MOL1         0.0997
      13    H9      20.592358   17.678417   23.358991 H          1 MOL1         0.0997
      14    C4      20.993577   19.795115   23.056130 C.3        1 MOL1        -0.1305
      15    H10     21.195206   20.478044   22.218934 H          1 MOL1         0.0997
      16    H11     20.038024   20.097709   23.502456 H          1 MOL1         0.0997
      17    C5      22.102806   19.949461   24.118583 C.3        1 MOL1        -0.2320
      18    H12     23.086633   19.694496   23.703492 H          1 MOL1         0.1008
      19    H13     22.149846   20.983974   24.482754 H          1 MOL1         0.1008
      20    H14     21.916469   19.296912   24.981560 H          1 MOL1         0.1008
@<TRIPOS>BOND
    1     1     2    1
    2     1     3    1
    3     1     4    1
    4     1     5    1
    5     5     6    1
    6     5     7    1
    7     5     8    1
    8     8     9    1
    9     8    10    1
   10     8    11    1
   11    11    12    1
   12    11    13    1
   13    11    14    1
   14    14    15    1
   15    14    16    1
   16    14    17    1
   17    17    18    1
   18    17    19    1
   19    17    20    1
@<TRIPOS>SUBSTRUCTURE
       1 MOL1            1 RESIDUE      1      MOL     
@<SCITEGIC>MOL_PROPERTY
VConf Rank
SciTegic.value.IntegerValue
634

@<SCITEGIC>MOL_PROPERTY
Conf_Id
SciTegic.value.IntegerValue
26

@<SCITEGIC>MOL_PROPERTY
Delta U+W
SciTegic.value.DoubleValue
2.809

@<SCITEGIC>MOL_PROPERTY
U+W
SciTegic.value.DoubleValue
-8.969

@<SCITEGIC>MOL_PROPERTY
Grad RMS
SciTegic.value.DoubleValue
0.000000

@<SCITEGIC>MOL_PROPERTY
U
SciTegic.value.DoubleValue
49.216

@<SCITEGIC>MOL_PROPERTY
W
SciTegic.value.DoubleValue
-58.185

@<SCITEGIC>MOL_PROPERTY
W(PB)
SciTegic.value.DoubleValue
-60.088

@<SCITEGIC>MOL_PROPERTY
W(SA)
SciTegic.value.DoubleValue
1.903

@<SCITEGIC>MOL_PROPERTY
Valence
SciTegic.value.DoubleValue
2.929

@<SCITEGIC>MOL_PROPERTY
Coulomb
SciTegic.value.DoubleValue
46.006

@<SCITEGIC>MOL_PROPERTY
VdW
SciTegic.value.DoubleValue
0.281

@<SCITEGIC>MOL_PROPERTY
VdW6
SciTegic.value.DoubleValue
-4.909

@<SCITEGIC>MOL_PROPERTY
VdW12
SciTegic.value.DoubleValue
5.190

@<SCITEGIC>MOL_PROPERTY
Bond
SciTegic.value.DoubleValue
0.156

@<SCITEGIC>MOL_PROPERTY
Angle
SciTegic.value.DoubleValue
0.974

@<SCITEGIC>MOL_PROPERTY
Pdih
SciTegic.value.DoubleValue
1.799

@<SCITEGIC>MOL_PROPERTY
Idih
SciTegic.value.DoubleValue
0.000

@<SCITEGIC>MOL_PROPERTY
Tether
SciTegic.value.DoubleValue
0.000

@<TRIPOS>MOLECULE
guest-s11_confgen4.mol2 : confsearch ligand conformer 635
          20          19           1
SMALL
USER_CHARGES
 
@<TRIPOS>ATOM
       1    N1      21.883371   18.872044   20.823024 N.4        1 MOL1        -0.5919
       2    H1      22.290062   18.665531   21.740027 H          1 MOL1         0.3682
       3    H2      21.880196   17.997321   20.289275 H          1 MOL1         0.3682
       4    H3      22.527633   19.510802   20.345297 H          1 MOL1         0.3682
       5    C1      20.492189   19.462308   20.946313 C.3        1 MOL1         0.0252
       6    H4      20.134527   19.685500   19.937467 H          1 MOL1         0.0971
       7    H5      20.570179   20.404832   21.494491 H          1 MOL1         0.0971
       8    C2      19.484799   18.532227   21.652293 C.3        1 MOL1        -0.1369
       9    H6      18.493332   19.002348   21.629677 H          1 MOL1         0.0997
      10    H7      19.388613   17.602908   21.075446 H          1 MOL1         0.0997
      11    C3      19.864217   18.187202   23.116531 C.3        1 MOL1        -0.1329
      12    H8      20.775397   17.574065   23.121046 H          1 MOL1         0.0997
      13    H9      19.076992   17.551912   23.545347 H          1 MOL1         0.0997
      14    C4      20.080266   19.414357   24.038726 C.3        1 MOL1        -0.1305
      15    H10     20.364067   19.056206   25.038243 H          1 MOL1         0.0997
      16    H11     20.928324   20.014084   23.681482 H          1 MOL1         0.0997
      17    C5      18.828447   20.311537   24.168577 C.3        1 MOL1        -0.2320
      18    H12     17.960729   19.731691   24.508880 H          1 MOL1         0.1008
      19    H13     19.003564   21.112723   24.898179 H          1 MOL1         0.1008
      20    H14     18.571969   20.785797   23.213120 H          1 MOL1         0.1008
@<TRIPOS>BOND
    1     1     2    1
    2     1     3    1
    3     1     4    1
    4     1     5    1
    5     5     6    1
    6     5     7    1
    7     5     8    1
    8     8     9    1
    9     8    10    1
   10     8    11    1
   11    11    12    1
   12    11    13    1
   13    11    14    1
   14    14    15    1
   15    14    16    1
   16    14    17    1
   17    17    18    1
   18    17    19    1
   19    17    20    1
@<TRIPOS>SUBSTRUCTURE
       1 MOL1            1 RESIDUE      1      MOL     
@<SCITEGIC>MOL_PROPERTY
VConf Rank
SciTegic.value.IntegerValue
635

@<SCITEGIC>MOL_PROPERTY
Conf_Id
SciTegic.value.IntegerValue
2

@<SCITEGIC>MOL_PROPERTY
Delta U+W
SciTegic.value.DoubleValue
0.994

@<SCITEGIC>MOL_PROPERTY
U+W
SciTegic.value.DoubleValue
-10.784

@<SCITEGIC>MOL_PROPERTY
Grad RMS
SciTegic.value.DoubleValue
0.000000

@<SCITEGIC>MOL_PROPERTY
U
SciTegic.value.DoubleValue
47.562

@<SCITEGIC>MOL_PROPERTY
W
SciTegic.value.DoubleValue
-58.346

@<SCITEGIC>MOL_PROPERTY
W(PB)
SciTegic.value.DoubleValue
-60.221

@<SCITEGIC>MOL_PROPERTY
W(SA)
SciTegic.value.DoubleValue
1.875

@<SCITEGIC>MOL_PROPERTY
Valence
SciTegic.value.DoubleValue
2.149

@<SCITEGIC>MOL_PROPERTY
Coulomb
SciTegic.value.DoubleValue
45.034

@<SCITEGIC>MOL_PROPERTY
VdW
SciTegic.value.DoubleValue
0.378

@<SCITEGIC>MOL_PROPERTY
VdW6
SciTegic.value.DoubleValue
-5.599

@<SCITEGIC>MOL_PROPERTY
VdW12
SciTegic.value.DoubleValue
5.977

@<SCITEGIC>MOL_PROPERTY
Bond
SciTegic.value.DoubleValue
0.185

@<SCITEGIC>MOL_PROPERTY
Angle
SciTegic.value.DoubleValue
0.935

@<SCITEGIC>MOL_PROPERTY
Pdih
SciTegic.value.DoubleValue
1.028

@<SCITEGIC>MOL_PROPERTY
Idih
SciTegic.value.DoubleValue
0.000

@<SCITEGIC>MOL_PROPERTY
Tether
SciTegic.value.DoubleValue
0.000

@<TRIPOS>MOLECULE
guest-s11_confgen4.mol2 : confsearch ligand conformer 636
          20          19           1
SMALL
USER_CHARGES
 
@<TRIPOS>ATOM
       1    N1      18.806390   17.171433   21.882851 N.4        1 MOL1        -0.5919
       2    H1      17.837105   17.355068   21.605720 H          1 MOL1         0.3682
       3    H2      19.397115   17.376804   21.071798 H          1 MOL1         0.3682
       4    H3      18.880088   16.164434   22.061262 H          1 MOL1         0.3682
       5    C1      19.211296   17.989671   23.093444 C.3        1 MOL1         0.0252
       6    H4      20.238645   17.723532   23.355469 H          1 MOL1         0.0971
       7    H5      18.563155   17.698150   23.924368 H          1 MOL1         0.0971
       8    C2      19.108682   19.512753   22.874403 C.3        1 MOL1        -0.1369
       9    H6      18.066921   19.773376   22.645386 H          1 MOL1         0.0997
      10    H7      19.344200   20.022442   23.817419 H          1 MOL1         0.0997
      11    C3      20.029145   20.051139   21.747513 C.3        1 MOL1        -0.1329
      12    H8      19.913495   21.142119   21.687638 H          1 MOL1         0.0997
      13    H9      19.684198   19.662788   20.779835 H          1 MOL1         0.0997
      14    C4      21.532109   19.711786   21.917744 C.3        1 MOL1        -0.1305
      15    H10     21.682833   18.624313   21.883390 H          1 MOL1         0.0997
      16    H11     22.083180   20.119838   21.058870 H          1 MOL1         0.0997
      17    C5      22.145392   20.279803   23.217774 C.3        1 MOL1        -0.2320
      18    H12     21.703727   19.815046   24.108019 H          1 MOL1         0.1008
      19    H13     23.226087   20.089900   23.248104 H          1 MOL1         0.1008
      20    H14     21.993450   21.364880   23.284720 H          1 MOL1         0.1008
@<TRIPOS>BOND
    1     1     2    1
    2     1     3    1
    3     1     4    1
    4     1     5    1
    5     5     6    1
    6     5     7    1
    7     5     8    1
    8     8     9    1
    9     8    10    1
   10     8    11    1
   11    11    12    1
   12    11    13    1
   13    11    14    1
   14    14    15    1
   15    14    16    1
   16    14    17    1
   17    17    18    1
   18    17    19    1
   19    17    20    1
@<TRIPOS>SUBSTRUCTURE
       1 MOL1            1 RESIDUE      1      MOL     
@<SCITEGIC>MOL_PROPERTY
VConf Rank
SciTegic.value.IntegerValue
636

@<SCITEGIC>MOL_PROPERTY
Conf_Id
SciTegic.value.IntegerValue
1

@<SCITEGIC>MOL_PROPERTY
Delta U+W
SciTegic.value.DoubleValue
1.032

@<SCITEGIC>MOL_PROPERTY
U+W
SciTegic.value.DoubleValue
-10.746

@<SCITEGIC>MOL_PROPERTY
Grad RMS
SciTegic.value.DoubleValue
0.000000

@<SCITEGIC>MOL_PROPERTY
U
SciTegic.value.DoubleValue
47.562

@<SCITEGIC>MOL_PROPERTY
W
SciTegic.value.DoubleValue
-58.308

@<SCITEGIC>MOL_PROPERTY
W(PB)
SciTegic.value.DoubleValue
-60.184

@<SCITEGIC>MOL_PROPERTY
W(SA)
SciTegic.value.DoubleValue
1.877

@<SCITEGIC>MOL_PROPERTY
Valence
SciTegic.value.DoubleValue
2.149

@<SCITEGIC>MOL_PROPERTY
Coulomb
SciTegic.value.DoubleValue
45.035

@<SCITEGIC>MOL_PROPERTY
VdW
SciTegic.value.DoubleValue
0.378

@<SCITEGIC>MOL_PROPERTY
VdW6
SciTegic.value.DoubleValue
-5.599

@<SCITEGIC>MOL_PROPERTY
VdW12
SciTegic.value.DoubleValue
5.978

@<SCITEGIC>MOL_PROPERTY
Bond
SciTegic.value.DoubleValue
0.185

@<SCITEGIC>MOL_PROPERTY
Angle
SciTegic.value.DoubleValue
0.935

@<SCITEGIC>MOL_PROPERTY
Pdih
SciTegic.value.DoubleValue
1.028

@<SCITEGIC>MOL_PROPERTY
Idih
SciTegic.value.DoubleValue
0.000

@<SCITEGIC>MOL_PROPERTY
Tether
SciTegic.value.DoubleValue
0.000

@<TRIPOS>MOLECULE
guest-s11_confgen4.mol2 : confsearch ligand conformer 637
          20          19           1
SMALL
USER_CHARGES
 
@<TRIPOS>ATOM
       1    N1      19.591450   18.487099   24.640130 N.4        1 MOL1        -0.5919
       2    H1      20.094270   18.881430   25.441232 H          1 MOL1         0.3682
       3    H2      18.939274   19.203945   24.309249 H          1 MOL1         0.3682
       4    H3      19.025984   17.709576   24.996572 H          1 MOL1         0.3682
       5    C1      20.538886   18.038187   23.544412 C.3        1 MOL1         0.0252
       6    H4      19.942016   17.603109   22.741309 H          1 MOL1         0.0971
       7    H5      21.170333   17.248042   23.959708 H          1 MOL1         0.0971
       8    C2      21.437004   19.167198   22.995383 C.3        1 MOL1        -0.1369
       9    H6      22.011368   19.583350   23.833682 H          1 MOL1         0.0997
      10    H7      22.177794   18.740078   22.306603 H          1 MOL1         0.0997
      11    C3      20.673230   20.319643   22.289096 C.3        1 MOL1        -0.1329
      12    H8      21.309778   21.214718   22.321836 H          1 MOL1         0.0997
      13    H9      19.767607   20.584880   22.849650 H          1 MOL1         0.0997
      14    C4      20.318449   20.058131   20.802565 C.3        1 MOL1        -0.1305
      15    H10     19.868358   20.972046   20.390103 H          1 MOL1         0.0997
      16    H11     21.238585   19.887630   20.226318 H          1 MOL1         0.0997
      17    C5      19.342432   18.883486   20.571190 C.3        1 MOL1        -0.2320
      18    H12     18.460361   18.963886   21.219454 H          1 MOL1         0.1008
      19    H13     18.993685   18.876264   19.530396 H          1 MOL1         0.1008
      20    H14     19.828423   17.918063   20.755103 H          1 MOL1         0.1008
@<TRIPOS>BOND
    1     1     2    1
    2     1     3    1
    3     1     4    1
    4     1     5    1
    5     5     6    1
    6     5     7    1
    7     5     8    1
    8     8     9    1
    9     8    10    1
   10     8    11    1
   11    11    12    1
   12    11    13    1
   13    11    14    1
   14    14    15    1
   15    14    16    1
   16    14    17    1
   17    17    18    1
   18    17    19    1
   19    17    20    1
@<TRIPOS>SUBSTRUCTURE
       1 MOL1            1 RESIDUE      1      MOL     
@<SCITEGIC>MOL_PROPERTY
VConf Rank
SciTegic.value.IntegerValue
637

@<SCITEGIC>MOL_PROPERTY
Conf_Id
SciTegic.value.IntegerValue
80

@<SCITEGIC>MOL_PROPERTY
Delta U+W
SciTegic.value.DoubleValue
2.920

@<SCITEGIC>MOL_PROPERTY
U+W
SciTegic.value.DoubleValue
-8.857

@<SCITEGIC>MOL_PROPERTY
Grad RMS
SciTegic.value.DoubleValue
0.000000

@<SCITEGIC>MOL_PROPERTY
U
SciTegic.value.DoubleValue
49.434

@<SCITEGIC>MOL_PROPERTY
W
SciTegic.value.DoubleValue
-58.292

@<SCITEGIC>MOL_PROPERTY
W(PB)
SciTegic.value.DoubleValue
-60.170

@<SCITEGIC>MOL_PROPERTY
W(SA)
SciTegic.value.DoubleValue
1.879

@<SCITEGIC>MOL_PROPERTY
Valence
SciTegic.value.DoubleValue
3.798

@<SCITEGIC>MOL_PROPERTY
Coulomb
SciTegic.value.DoubleValue
45.253

@<SCITEGIC>MOL_PROPERTY
VdW
SciTegic.value.DoubleValue
0.384

@<SCITEGIC>MOL_PROPERTY
VdW6
SciTegic.value.DoubleValue
-5.595

@<SCITEGIC>MOL_PROPERTY
VdW12
SciTegic.value.DoubleValue
5.979

@<SCITEGIC>MOL_PROPERTY
Bond
SciTegic.value.DoubleValue
0.198

@<SCITEGIC>MOL_PROPERTY
Angle
SciTegic.value.DoubleValue
1.368

@<SCITEGIC>MOL_PROPERTY
Pdih
SciTegic.value.DoubleValue
2.231

@<SCITEGIC>MOL_PROPERTY
Idih
SciTegic.value.DoubleValue
0.000

@<SCITEGIC>MOL_PROPERTY
Tether
SciTegic.value.DoubleValue
0.000

@<TRIPOS>MOLECULE
guest-s11_confgen4.mol2 : confsearch ligand conformer 638
          20          19           1
SMALL
USER_CHARGES
 
@<TRIPOS>ATOM
       1    N1      22.192203   18.095639   21.983551 N.4        1 MOL1        -0.5919
       2    H1      22.243064   17.533229   21.128449 H          1 MOL1         0.3682
       3    H2      23.152555   18.205336   22.325656 H          1 MOL1         0.3682
       4    H3      21.687844   17.541055   22.681222 H          1 MOL1         0.3682
       5    C1      21.525160   19.435436   21.739099 C.3        1 MOL1         0.0252
       6    H4      22.140971   19.982465   21.020030 H          1 MOL1         0.0971
       7    H5      21.532743   19.991032   22.678126 H          1 MOL1         0.0971
       8    C2      20.086119   19.324957   21.191666 C.3        1 MOL1        -0.1369
       9    H6      19.722924   20.324742   20.919382 H          1 MOL1         0.0997
      10    H7      20.121240   18.752889   20.255010 H          1 MOL1         0.0997
      11    C3      19.074437   18.648250   22.155456 C.3        1 MOL1        -0.1329
      12    H8      19.527389   17.774577   22.641513 H          1 MOL1         0.0997
      13    H9      18.248045   18.250265   21.550388 H          1 MOL1         0.0997
      14    C4      18.455914   19.587037   23.223235 C.3        1 MOL1        -0.1305
      15    H10     17.920861   20.409606   22.728381 H          1 MOL1         0.0997
      16    H11     17.694368   19.021962   23.778830 H          1 MOL1         0.0997
      17    C5      19.469506   20.168011   24.233695 C.3        1 MOL1        -0.2320
      18    H12     20.114455   20.920516   23.764835 H          1 MOL1         0.1008
      19    H13     18.943525   20.663371   25.060067 H          1 MOL1         0.1008
      20    H14     20.101207   19.379872   24.663288 H          1 MOL1         0.1008
@<TRIPOS>BOND
    1     1     2    1
    2     1     3    1
    3     1     4    1
    4     1     5    1
    5     5     6    1
    6     5     7    1
    7     5     8    1
    8     8     9    1
    9     8    10    1
   10     8    11    1
   11    11    12    1
   12    11    13    1
   13    11    14    1
   14    14    15    1
   15    14    16    1
   16    14    17    1
   17    17    18    1
   18    17    19    1
   19    17    20    1
@<TRIPOS>SUBSTRUCTURE
       1 MOL1            1 RESIDUE      1      MOL     
@<SCITEGIC>MOL_PROPERTY
VConf Rank
SciTegic.value.IntegerValue
638

@<SCITEGIC>MOL_PROPERTY
Conf_Id
SciTegic.value.IntegerValue
65

@<SCITEGIC>MOL_PROPERTY
Delta U+W
SciTegic.value.DoubleValue
2.949

@<SCITEGIC>MOL_PROPERTY
U+W
SciTegic.value.DoubleValue
-8.829

@<SCITEGIC>MOL_PROPERTY
Grad RMS
SciTegic.value.DoubleValue
0.000000

@<SCITEGIC>MOL_PROPERTY
U
SciTegic.value.DoubleValue
49.435

@<SCITEGIC>MOL_PROPERTY
W
SciTegic.value.DoubleValue
-58.263

@<SCITEGIC>MOL_PROPERTY
W(PB)
SciTegic.value.DoubleValue
-60.125

@<SCITEGIC>MOL_PROPERTY
W(SA)
SciTegic.value.DoubleValue
1.862

@<SCITEGIC>MOL_PROPERTY
Valence
SciTegic.value.DoubleValue
3.797

@<SCITEGIC>MOL_PROPERTY
Coulomb
SciTegic.value.DoubleValue
45.253

@<SCITEGIC>MOL_PROPERTY
VdW
SciTegic.value.DoubleValue
0.384

@<SCITEGIC>MOL_PROPERTY
VdW6
SciTegic.value.DoubleValue
-5.596

@<SCITEGIC>MOL_PROPERTY
VdW12
SciTegic.value.DoubleValue
5.980

@<SCITEGIC>MOL_PROPERTY
Bond
SciTegic.value.DoubleValue
0.198

@<SCITEGIC>MOL_PROPERTY
Angle
SciTegic.value.DoubleValue
1.369

@<SCITEGIC>MOL_PROPERTY
Pdih
SciTegic.value.DoubleValue
2.230

@<SCITEGIC>MOL_PROPERTY
Idih
SciTegic.value.DoubleValue
0.000

@<SCITEGIC>MOL_PROPERTY
Tether
SciTegic.value.DoubleValue
0.000

@<TRIPOS>MOLECULE
guest-s11_confgen4.mol2 : confsearch ligand conformer 639
          20          19           1
SMALL
USER_CHARGES
 
@<TRIPOS>ATOM
       1    N1      19.327073   21.033787   22.286451 N.4        1 MOL1        -0.5919
       2    H1      19.372485   21.931562   22.780029 H          1 MOL1         0.3682
       3    H2      20.271873   20.820084   21.952669 H          1 MOL1         0.3682
       4    H3      18.737038   21.177169   21.460796 H          1 MOL1         0.3682
       5    C1      18.791397   19.928249   23.175491 C.3        1 MOL1         0.0252
       6    H4      17.786805   20.227238   23.486812 H          1 MOL1         0.0971
       7    H5      19.417755   19.862247   24.069090 H          1 MOL1         0.0971
       8    C2      18.715623   18.550893   22.485883 C.3        1 MOL1        -0.1369
       9    H6      17.965945   17.951579   23.019377 H          1 MOL1         0.0997
      10    H7      18.331747   18.667504   21.463704 H          1 MOL1         0.0997
      11    C3      20.042322   17.744976   22.470846 C.3        1 MOL1        -0.1329
      12    H8      19.830641   16.773156   22.003640 H          1 MOL1         0.0997
      13    H9      20.351968   17.514220   23.499601 H          1 MOL1         0.0997
      14    C4      21.213389   18.403649   21.698012 C.3        1 MOL1        -0.1305
      15    H10     21.797198   17.612492   21.206589 H          1 MOL1         0.0997
      16    H11     20.830480   19.035515   20.885368 H          1 MOL1         0.0997
      17    C5      22.173624   19.200125   22.613104 C.3        1 MOL1        -0.2320
      18    H12     21.655673   19.968199   23.197386 H          1 MOL1         0.1008
      19    H13     22.674875   18.529485   23.323252 H          1 MOL1         0.1008
      20    H14     22.953516   19.694088   22.019008 H          1 MOL1         0.1008
@<TRIPOS>BOND
    1     1     2    1
    2     1     3    1
    3     1     4    1
    4     1     5    1
    5     5     6    1
    6     5     7    1
    7     5     8    1
    8     8     9    1
    9     8    10    1
   10     8    11    1
   11    11    12    1
   12    11    13    1
   13    11    14    1
   14    14    15    1
   15    14    16    1
   16    14    17    1
   17    17    18    1
   18    17    19    1
   19    17    20    1
@<TRIPOS>SUBSTRUCTURE
       1 MOL1            1 RESIDUE      1      MOL     
@<SCITEGIC>MOL_PROPERTY
VConf Rank
SciTegic.value.IntegerValue
639

@<SCITEGIC>MOL_PROPERTY
Conf_Id
SciTegic.value.IntegerValue
77

@<SCITEGIC>MOL_PROPERTY
Delta U+W
SciTegic.value.DoubleValue
5.366

@<SCITEGIC>MOL_PROPERTY
U+W
SciTegic.value.DoubleValue
-6.412

@<SCITEGIC>MOL_PROPERTY
Grad RMS
SciTegic.value.DoubleValue
0.000000

@<SCITEGIC>MOL_PROPERTY
U
SciTegic.value.DoubleValue
51.542

@<SCITEGIC>MOL_PROPERTY
W
SciTegic.value.DoubleValue
-57.954

@<SCITEGIC>MOL_PROPERTY
W(PB)
SciTegic.value.DoubleValue
-59.811

@<SCITEGIC>MOL_PROPERTY
W(SA)
SciTegic.value.DoubleValue
1.857

@<SCITEGIC>MOL_PROPERTY
Valence
SciTegic.value.DoubleValue
5.347

@<SCITEGIC>MOL_PROPERTY
Coulomb
SciTegic.value.DoubleValue
45.870

@<SCITEGIC>MOL_PROPERTY
VdW
SciTegic.value.DoubleValue
0.325

@<SCITEGIC>MOL_PROPERTY
VdW6
SciTegic.value.DoubleValue
-6.161

@<SCITEGIC>MOL_PROPERTY
VdW12
SciTegic.value.DoubleValue
6.486

@<SCITEGIC>MOL_PROPERTY
Bond
SciTegic.value.DoubleValue
0.201

@<SCITEGIC>MOL_PROPERTY
Angle
SciTegic.value.DoubleValue
1.484

@<SCITEGIC>MOL_PROPERTY
Pdih
SciTegic.value.DoubleValue
3.662

@<SCITEGIC>MOL_PROPERTY
Idih
SciTegic.value.DoubleValue
0.000

@<SCITEGIC>MOL_PROPERTY
Tether
SciTegic.value.DoubleValue
0.000

@<TRIPOS>MOLECULE
guest-s11_confgen4.mol2 : confsearch ligand conformer 640
          20          19           1
SMALL
USER_CHARGES
 
@<TRIPOS>ATOM
       1    N1      20.690926   19.566148   24.291282 N.4        1 MOL1        -0.5919
       2    H1      20.590394   18.832773   25.000126 H          1 MOL1         0.3682
       3    H2      21.391398   19.244054   23.616508 H          1 MOL1         0.3682
       4    H3      21.078437   20.388485   24.765919 H          1 MOL1         0.3682
       5    C1      19.371042   19.877008   23.612436 C.3        1 MOL1         0.0252
       6    H4      19.521354   20.706703   22.916581 H          1 MOL1         0.0971
       7    H5      18.681062   20.209554   24.392731 H          1 MOL1         0.0971
       8    C2      18.750259   18.676329   22.869866 C.3        1 MOL1        -0.1369
       9    H6      18.853535   17.768606   23.479113 H          1 MOL1         0.0997
      10    H7      17.670537   18.857977   22.786098 H          1 MOL1         0.0997
      11    C3      19.300472   18.426810   21.439877 C.3        1 MOL1        -0.1329
      12    H8      19.073807   19.287853   20.795909 H          1 MOL1         0.0997
      13    H9      18.736547   17.585567   21.013468 H          1 MOL1         0.0997
      14    C4      20.809697   18.083438   21.357078 C.3        1 MOL1        -0.1305
      15    H10     21.140045   17.578878   22.274984 H          1 MOL1         0.0997
      16    H11     20.958590   17.353261   20.549036 H          1 MOL1         0.0997
      17    C5      21.696918   19.313598   21.051521 C.3        1 MOL1        -0.2320
      18    H12     22.758948   19.035673   21.057110 H          1 MOL1         0.1008
      19    H13     21.466852   19.717833   20.057043 H          1 MOL1         0.1008
      20    H14     21.555055   20.123321   21.775272 H          1 MOL1         0.1008
@<TRIPOS>BOND
    1     1     2    1
    2     1     3    1
    3     1     4    1
    4     1     5    1
    5     5     6    1
    6     5     7    1
    7     5     8    1
    8     8     9    1
    9     8    10    1
   10     8    11    1
   11    11    12    1
   12    11    13    1
   13    11    14    1
   14    14    15    1
   15    14    16    1
   16    14    17    1
   17    17    18    1
   18    17    19    1
   19    17    20    1
@<TRIPOS>SUBSTRUCTURE
       1 MOL1            1 RESIDUE      1      MOL     
@<SCITEGIC>MOL_PROPERTY
VConf Rank
SciTegic.value.IntegerValue
640

@<SCITEGIC>MOL_PROPERTY
Conf_Id
SciTegic.value.IntegerValue
67

@<SCITEGIC>MOL_PROPERTY
Delta U+W
SciTegic.value.DoubleValue
5.353

@<SCITEGIC>MOL_PROPERTY
U+W
SciTegic.value.DoubleValue
-6.425

@<SCITEGIC>MOL_PROPERTY
Grad RMS
SciTegic.value.DoubleValue
0.000000

@<SCITEGIC>MOL_PROPERTY
U
SciTegic.value.DoubleValue
51.541

@<SCITEGIC>MOL_PROPERTY
W
SciTegic.value.DoubleValue
-57.966

@<SCITEGIC>MOL_PROPERTY
W(PB)
SciTegic.value.DoubleValue
-59.821

@<SCITEGIC>MOL_PROPERTY
W(SA)
SciTegic.value.DoubleValue
1.855

@<SCITEGIC>MOL_PROPERTY
Valence
SciTegic.value.DoubleValue
5.347

@<SCITEGIC>MOL_PROPERTY
Coulomb
SciTegic.value.DoubleValue
45.870

@<SCITEGIC>MOL_PROPERTY
VdW
SciTegic.value.DoubleValue
0.325

@<SCITEGIC>MOL_PROPERTY
VdW6
SciTegic.value.DoubleValue
-6.161

@<SCITEGIC>MOL_PROPERTY
VdW12
SciTegic.value.DoubleValue
6.486

@<SCITEGIC>MOL_PROPERTY
Bond
SciTegic.value.DoubleValue
0.201

@<SCITEGIC>MOL_PROPERTY
Angle
SciTegic.value.DoubleValue
1.485

@<SCITEGIC>MOL_PROPERTY
Pdih
SciTegic.value.DoubleValue
3.662

@<SCITEGIC>MOL_PROPERTY
Idih
SciTegic.value.DoubleValue
0.000

@<SCITEGIC>MOL_PROPERTY
Tether
SciTegic.value.DoubleValue
0.000

@<TRIPOS>MOLECULE
guest-s11_confgen4.mol2 : confsearch ligand conformer 641
          20          19           1
SMALL
USER_CHARGES
 
@<TRIPOS>ATOM
       1    N1      22.459446   21.356857   22.664891 N.4        1 MOL1        -0.5919
       2    H1      22.747003   21.352771   21.681182 H          1 MOL1         0.3682
       3    H2      22.546759   22.323480   22.995973 H          1 MOL1         0.3682
       4    H3      23.148612   20.802283   23.182466 H          1 MOL1         0.3682
       5    C1      21.052233   20.824514   22.846136 C.3        1 MOL1         0.0252
       6    H4      20.370563   21.477983   22.294937 H          1 MOL1         0.0971
       7    H5      20.802362   20.886020   23.908820 H          1 MOL1         0.0971
       8    C2      20.886690   19.374011   22.358384 C.3        1 MOL1        -0.1369
       9    H6      21.153964   19.313869   21.294892 H          1 MOL1         0.0997
      10    H7      21.584275   18.723929   22.903211 H          1 MOL1         0.0997
      11    C3      19.440230   18.870463   22.560681 C.3        1 MOL1        -0.1329
      12    H8      18.744575   19.526183   22.018568 H          1 MOL1         0.0997
      13    H9      19.174391   18.936865   23.624971 H          1 MOL1         0.0997
      14    C4      19.262135   17.414707   22.074273 C.3        1 MOL1        -0.1305
      15    H10     19.525056   17.344197   21.009403 H          1 MOL1         0.0997
      16    H11     19.954730   16.754943   22.615636 H          1 MOL1         0.0997
      17    C5      17.815548   16.915959   22.278268 C.3        1 MOL1        -0.2320
      18    H12     17.101588   17.535892   21.720451 H          1 MOL1         0.1008
      19    H13     17.708977   15.881359   21.927144 H          1 MOL1         0.1008
      20    H14     17.534656   16.941902   23.339230 H          1 MOL1         0.1008
@<TRIPOS>BOND
    1     1     2    1
    2     1     3    1
    3     1     4    1
    4     1     5    1
    5     5     6    1
    6     5     7    1
    7     5     8    1
    8     8     9    1
    9     8    10    1
   10     8    11    1
   11    11    12    1
   12    11    13    1
   13    11    14    1
   14    14    15    1
   15    14    16    1
   16    14    17    1
   17    17    18    1
   18    17    19    1
   19    17    20    1
@<TRIPOS>SUBSTRUCTURE
       1 MOL1            1 RESIDUE      1      MOL     
@<SCITEGIC>MOL_PROPERTY
VConf Rank
SciTegic.value.IntegerValue
641

@<SCITEGIC>MOL_PROPERTY
Conf_Id
SciTegic.value.IntegerValue
72

@<SCITEGIC>MOL_PROPERTY
Delta U+W
SciTegic.value.DoubleValue
0.000

@<SCITEGIC>MOL_PROPERTY
U+W
SciTegic.value.DoubleValue
-11.778

@<SCITEGIC>MOL_PROPERTY
Grad RMS
SciTegic.value.DoubleValue
0.000000

@<SCITEGIC>MOL_PROPERTY
U
SciTegic.value.DoubleValue
45.772

@<SCITEGIC>MOL_PROPERTY
W
SciTegic.value.DoubleValue
-57.550

@<SCITEGIC>MOL_PROPERTY
W(PB)
SciTegic.value.DoubleValue
-59.511

@<SCITEGIC>MOL_PROPERTY
W(SA)
SciTegic.value.DoubleValue
1.961

@<SCITEGIC>MOL_PROPERTY
Valence
SciTegic.value.DoubleValue
1.299

@<SCITEGIC>MOL_PROPERTY
Coulomb
SciTegic.value.DoubleValue
44.177

@<SCITEGIC>MOL_PROPERTY
VdW
SciTegic.value.DoubleValue
0.297

@<SCITEGIC>MOL_PROPERTY
VdW6
SciTegic.value.DoubleValue
-3.490

@<SCITEGIC>MOL_PROPERTY
VdW12
SciTegic.value.DoubleValue
3.786

@<SCITEGIC>MOL_PROPERTY
Bond
SciTegic.value.DoubleValue
0.096

@<SCITEGIC>MOL_PROPERTY
Angle
SciTegic.value.DoubleValue
0.381

@<SCITEGIC>MOL_PROPERTY
Pdih
SciTegic.value.DoubleValue
0.822

@<SCITEGIC>MOL_PROPERTY
Idih
SciTegic.value.DoubleValue
0.000

@<SCITEGIC>MOL_PROPERTY
Tether
SciTegic.value.DoubleValue
0.000

@<TRIPOS>MOLECULE
guest-s11_confgen4.mol2 : confsearch ligand conformer 642
          20          19           1
SMALL
USER_CHARGES
 
@<TRIPOS>ATOM
       1    N1      17.188139   19.212412   21.746180 N.4        1 MOL1        -0.5919
       2    H1      17.191570   20.235200   21.681147 H          1 MOL1         0.3682
       3    H2      17.284833   18.849506   20.792601 H          1 MOL1         0.3682
       4    H3      16.256271   18.938673   22.075224 H          1 MOL1         0.3682
       5    C1      18.281574   18.699060   22.661300 C.3        1 MOL1         0.0252
       6    H4      18.199215   17.609749   22.707279 H          1 MOL1         0.0971
       7    H5      18.099707   19.099524   23.662328 H          1 MOL1         0.0971
       8    C2      19.694941   19.092274   22.195419 C.3        1 MOL1        -0.1369
       9    H6      19.867380   18.701774   21.183696 H          1 MOL1         0.0997
      10    H7      19.760550   20.185993   22.135904 H          1 MOL1         0.0997
      11    C3      20.777630   18.546194   23.155997 C.3        1 MOL1        -0.1329
      12    H8      20.647164   17.460127   23.261727 H          1 MOL1         0.0997
      13    H9      20.632771   18.973184   24.158136 H          1 MOL1         0.0997
      14    C4      22.223953   18.824254   22.679026 C.3        1 MOL1        -0.1305
      15    H10     22.923004   18.315855   23.357848 H          1 MOL1         0.0997
      16    H11     22.380635   18.378097   21.686922 H          1 MOL1         0.0997
      17    C5      22.578246   20.328254   22.634413 C.3        1 MOL1        -0.2320
      18    H12     22.403292   20.804536   23.607840 H          1 MOL1         0.1008
      19    H13     23.637000   20.466007   22.379427 H          1 MOL1         0.1008
      20    H14     21.986154   20.860224   21.879524 H          1 MOL1         0.1008
@<TRIPOS>BOND
    1     1     2    1
    2     1     3    1
    3     1     4    1
    4     1     5    1
    5     5     6    1
    6     5     7    1
    7     5     8    1
    8     8     9    1
    9     8    10    1
   10     8    11    1
   11    11    12    1
   12    11    13    1
   13    11    14    1
   14    14    15    1
   15    14    16    1
   16    14    17    1
   17    17    18    1
   18    17    19    1
   19    17    20    1
@<TRIPOS>SUBSTRUCTURE
       1 MOL1            1 RESIDUE      1      MOL     
@<SCITEGIC>MOL_PROPERTY
VConf Rank
SciTegic.value.IntegerValue
642

@<SCITEGIC>MOL_PROPERTY
Conf_Id
SciTegic.value.IntegerValue
42

@<SCITEGIC>MOL_PROPERTY
Delta U+W
SciTegic.value.DoubleValue
0.508

@<SCITEGIC>MOL_PROPERTY
U+W
SciTegic.value.DoubleValue
-11.270

@<SCITEGIC>MOL_PROPERTY
Grad RMS
SciTegic.value.DoubleValue
0.000000

@<SCITEGIC>MOL_PROPERTY
U
SciTegic.value.DoubleValue
46.486

@<SCITEGIC>MOL_PROPERTY
W
SciTegic.value.DoubleValue
-57.756

@<SCITEGIC>MOL_PROPERTY
W(PB)
SciTegic.value.DoubleValue
-59.705

@<SCITEGIC>MOL_PROPERTY
W(SA)
SciTegic.value.DoubleValue
1.949

@<SCITEGIC>MOL_PROPERTY
Valence
SciTegic.value.DoubleValue
1.806

@<SCITEGIC>MOL_PROPERTY
Coulomb
SciTegic.value.DoubleValue
44.248

@<SCITEGIC>MOL_PROPERTY
VdW
SciTegic.value.DoubleValue
0.433

@<SCITEGIC>MOL_PROPERTY
VdW6
SciTegic.value.DoubleValue
-4.089

@<SCITEGIC>MOL_PROPERTY
VdW12
SciTegic.value.DoubleValue
4.522

@<SCITEGIC>MOL_PROPERTY
Bond
SciTegic.value.DoubleValue
0.131

@<SCITEGIC>MOL_PROPERTY
Angle
SciTegic.value.DoubleValue
0.628

@<SCITEGIC>MOL_PROPERTY
Pdih
SciTegic.value.DoubleValue
1.047

@<SCITEGIC>MOL_PROPERTY
Idih
SciTegic.value.DoubleValue
0.000

@<SCITEGIC>MOL_PROPERTY
Tether
SciTegic.value.DoubleValue
0.000

@<TRIPOS>MOLECULE
guest-s11_confgen4.mol2 : confsearch ligand conformer 643
          20          19           1
SMALL
USER_CHARGES
 
@<TRIPOS>ATOM
       1    N1      19.883745   20.613814   25.036915 N.4        1 MOL1        -0.5919
       2    H1      19.086861   20.099227   25.424909 H          1 MOL1         0.3682
       3    H2      20.733345   20.185139   25.417377 H          1 MOL1         0.3682
       4    H3      19.835794   21.565523   25.415772 H          1 MOL1         0.3682
       5    C1      19.876883   20.610135   23.521487 C.3        1 MOL1         0.0252
       6    H4      20.732156   21.198720   23.178583 H          1 MOL1         0.0971
       7    H5      18.962134   21.107025   23.187079 H          1 MOL1         0.0971
       8    C2      19.947419   19.195317   22.919338 C.3        1 MOL1        -0.1369
       9    H6      20.859507   18.700071   23.275562 H          1 MOL1         0.0997
      10    H7      19.095540   18.602966   23.278829 H          1 MOL1         0.0997
      11    C3      19.935615   19.239314   21.373033 C.3        1 MOL1        -0.1329
      12    H8      20.813434   19.792943   21.011764 H          1 MOL1         0.0997
      13    H9      19.054951   19.804914   21.037966 H          1 MOL1         0.0997
      14    C4      19.900559   17.838325   20.715257 C.3        1 MOL1        -0.1305
      15    H10     19.011012   17.289863   21.055510 H          1 MOL1         0.0997
      16    H11     19.788048   17.961520   19.628932 H          1 MOL1         0.0997
      17    C5      21.167439   16.997053   20.992398 C.3        1 MOL1        -0.2320
      18    H12     21.259322   16.744035   22.055866 H          1 MOL1         0.1008
      19    H13     21.132588   16.054112   20.431506 H          1 MOL1         0.1008
      20    H14     22.073988   17.535397   20.686834 H          1 MOL1         0.1008
@<TRIPOS>BOND
    1     1     2    1
    2     1     3    1
    3     1     4    1
    4     1     5    1
    5     5     6    1
    6     5     7    1
    7     5     8    1
    8     8     9    1
    9     8    10    1
   10     8    11    1
   11    11    12    1
   12    11    13    1
   13    11    14    1
   14    14    15    1
   15    14    16    1
   16    14    17    1
   17    17    18    1
   18    17    19    1
   19    17    20    1
@<TRIPOS>SUBSTRUCTURE
       1 MOL1            1 RESIDUE      1      MOL     
@<SCITEGIC>MOL_PROPERTY
VConf Rank
SciTegic.value.IntegerValue
643

@<SCITEGIC>MOL_PROPERTY
Conf_Id
SciTegic.value.IntegerValue
41

@<SCITEGIC>MOL_PROPERTY
Delta U+W
SciTegic.value.DoubleValue
0.515

@<SCITEGIC>MOL_PROPERTY
U+W
SciTegic.value.DoubleValue
-11.263

@<SCITEGIC>MOL_PROPERTY
Grad RMS
SciTegic.value.DoubleValue
0.000000

@<SCITEGIC>MOL_PROPERTY
U
SciTegic.value.DoubleValue
46.486

@<SCITEGIC>MOL_PROPERTY
W
SciTegic.value.DoubleValue
-57.749

@<SCITEGIC>MOL_PROPERTY
W(PB)
SciTegic.value.DoubleValue
-59.685

@<SCITEGIC>MOL_PROPERTY
W(SA)
SciTegic.value.DoubleValue
1.936

@<SCITEGIC>MOL_PROPERTY
Valence
SciTegic.value.DoubleValue
1.806

@<SCITEGIC>MOL_PROPERTY
Coulomb
SciTegic.value.DoubleValue
44.248

@<SCITEGIC>MOL_PROPERTY
VdW
SciTegic.value.DoubleValue
0.433

@<SCITEGIC>MOL_PROPERTY
VdW6
SciTegic.value.DoubleValue
-4.089

@<SCITEGIC>MOL_PROPERTY
VdW12
SciTegic.value.DoubleValue
4.522

@<SCITEGIC>MOL_PROPERTY
Bond
SciTegic.value.DoubleValue
0.131

@<SCITEGIC>MOL_PROPERTY
Angle
SciTegic.value.DoubleValue
0.628

@<SCITEGIC>MOL_PROPERTY
Pdih
SciTegic.value.DoubleValue
1.047

@<SCITEGIC>MOL_PROPERTY
Idih
SciTegic.value.DoubleValue
0.000

@<SCITEGIC>MOL_PROPERTY
Tether
SciTegic.value.DoubleValue
0.000

@<TRIPOS>MOLECULE
guest-s11_confgen4.mol2 : confsearch ligand conformer 644
          20          19           1
SMALL
USER_CHARGES
 
@<TRIPOS>ATOM
       1    N1      21.809283   19.708632   24.596419 N.4        1 MOL1        -0.5919
       2    H1      21.985887   20.131377   25.513806 H          1 MOL1         0.3682
       3    H2      21.568539   18.727015   24.761975 H          1 MOL1         0.3682
       4    H3      22.698385   19.720706   24.086962 H          1 MOL1         0.3682
       5    C1      20.715597   20.439320   23.841362 C.3        1 MOL1         0.0252
       6    H4      21.023535   21.483831   23.742508 H          1 MOL1         0.0971
       7    H5      19.805824   20.409306   24.447046 H          1 MOL1         0.0971
       8    C2      20.427015   19.859018   22.442849 C.3        1 MOL1        -0.1369
       9    H6      19.713511   20.524405   21.941073 H          1 MOL1         0.0997
      10    H7      21.346527   19.874386   21.842891 H          1 MOL1         0.0997
      11    C3      19.852218   18.421090   22.498432 C.3        1 MOL1        -0.1329
      12    H8      18.920504   18.417604   23.080982 H          1 MOL1         0.0997
      13    H9      20.553620   17.767509   23.033666 H          1 MOL1         0.0997
      14    C4      19.590399   17.807399   21.101358 C.3        1 MOL1        -0.1305
      15    H10     20.522672   17.796063   20.519461 H          1 MOL1         0.0997
      16    H11     19.295449   16.756287   21.228273 H          1 MOL1         0.0997
      17    C5      18.487617   18.539547   20.302863 C.3        1 MOL1        -0.2320
      18    H12     18.788887   19.561284   20.041026 H          1 MOL1         0.1008
      19    H13     18.275942   18.008865   19.365569 H          1 MOL1         0.1008
      20    H14     17.553119   18.592105   20.876409 H          1 MOL1         0.1008
@<TRIPOS>BOND
    1     1     2    1
    2     1     3    1
    3     1     4    1
    4     1     5    1
    5     5     6    1
    6     5     7    1
    7     5     8    1
    8     8     9    1
    9     8    10    1
   10     8    11    1
   11    11    12    1
   12    11    13    1
   13    11    14    1
   14    14    15    1
   15    14    16    1
   16    14    17    1
   17    17    18    1
   18    17    19    1
   19    17    20    1
@<TRIPOS>SUBSTRUCTURE
       1 MOL1            1 RESIDUE      1      MOL     
@<SCITEGIC>MOL_PROPERTY
VConf Rank
SciTegic.value.IntegerValue
644

@<SCITEGIC>MOL_PROPERTY
Conf_Id
SciTegic.value.IntegerValue
33

@<SCITEGIC>MOL_PROPERTY
Delta U+W
SciTegic.value.DoubleValue
0.703

@<SCITEGIC>MOL_PROPERTY
U+W
SciTegic.value.DoubleValue
-11.075

@<SCITEGIC>MOL_PROPERTY
Grad RMS
SciTegic.value.DoubleValue
0.000000

@<SCITEGIC>MOL_PROPERTY
U
SciTegic.value.DoubleValue
47.080

@<SCITEGIC>MOL_PROPERTY
W
SciTegic.value.DoubleValue
-58.154

@<SCITEGIC>MOL_PROPERTY
W(PB)
SciTegic.value.DoubleValue
-60.053

@<SCITEGIC>MOL_PROPERTY
W(SA)
SciTegic.value.DoubleValue
1.899

@<SCITEGIC>MOL_PROPERTY
Valence
SciTegic.value.DoubleValue
1.943

@<SCITEGIC>MOL_PROPERTY
Coulomb
SciTegic.value.DoubleValue
44.572

@<SCITEGIC>MOL_PROPERTY
VdW
SciTegic.value.DoubleValue
0.565

@<SCITEGIC>MOL_PROPERTY
VdW6
SciTegic.value.DoubleValue
-4.575

@<SCITEGIC>MOL_PROPERTY
VdW12
SciTegic.value.DoubleValue
5.139

@<SCITEGIC>MOL_PROPERTY
Bond
SciTegic.value.DoubleValue
0.158

@<SCITEGIC>MOL_PROPERTY
Angle
SciTegic.value.DoubleValue
0.700

@<SCITEGIC>MOL_PROPERTY
Pdih
SciTegic.value.DoubleValue
1.085

@<SCITEGIC>MOL_PROPERTY
Idih
SciTegic.value.DoubleValue
0.000

@<SCITEGIC>MOL_PROPERTY
Tether
SciTegic.value.DoubleValue
0.000

@<TRIPOS>MOLECULE
guest-s11_confgen4.mol2 : confsearch ligand conformer 645
          20          19           1
SMALL
USER_CHARGES
 
@<TRIPOS>ATOM
       1    N1      17.965398   19.785259   20.896533 N.4        1 MOL1        -0.5919
       2    H1      17.380142   20.470352   20.407020 H          1 MOL1         0.3682
       3    H2      17.886959   18.903637   20.380022 H          1 MOL1         0.3682
       4    H3      17.542263   19.635471   21.817108 H          1 MOL1         0.3682
       5    C1      19.404888   20.250315   21.004939 C.3        1 MOL1         0.0252
       6    H4      19.415207   21.201844   21.543389 H          1 MOL1         0.0971
       7    H5      19.771298   20.430077   19.990527 H          1 MOL1         0.0971
       8    C2      20.334902   19.244453   21.711463 C.3        1 MOL1        -0.1369
       9    H6      20.309011   18.284728   21.178596 H          1 MOL1         0.0997
      10    H7      21.362553   19.620220   21.631835 H          1 MOL1         0.0997
      11    C3      19.967866   19.035087   23.202291 C.3        1 MOL1        -0.1329
      12    H8      18.926952   18.693955   23.278028 H          1 MOL1         0.0997
      13    H9      20.017859   19.995543   23.733791 H          1 MOL1         0.0997
      14    C4      20.868693   18.000150   23.919504 C.3        1 MOL1        -0.1305
      15    H10     20.471949   17.828517   24.929988 H          1 MOL1         0.0997
      16    H11     20.811534   17.033626   23.399475 H          1 MOL1         0.0997
      17    C5      22.345464   18.442520   24.034479 C.3        1 MOL1        -0.2320
      18    H12     22.427787   19.421992   24.523215 H          1 MOL1         0.1008
      19    H13     22.916879   17.720770   24.632401 H          1 MOL1         0.1008
      20    H14     22.825848   18.507221   23.050449 H          1 MOL1         0.1008
@<TRIPOS>BOND
    1     1     2    1
    2     1     3    1
    3     1     4    1
    4     1     5    1
    5     5     6    1
    6     5     7    1
    7     5     8    1
    8     8     9    1
    9     8    10    1
   10     8    11    1
   11    11    12    1
   12    11    13    1
   13    11    14    1
   14    14    15    1
   15    14    16    1
   16    14    17    1
   17    17    18    1
   18    17    19    1
   19    17    20    1
@<TRIPOS>SUBSTRUCTURE
       1 MOL1            1 RESIDUE      1      MOL     
@<SCITEGIC>MOL_PROPERTY
VConf Rank
SciTegic.value.IntegerValue
645

@<SCITEGIC>MOL_PROPERTY
Conf_Id
SciTegic.value.IntegerValue
24

@<SCITEGIC>MOL_PROPERTY
Delta U+W
SciTegic.value.DoubleValue
0.847

@<SCITEGIC>MOL_PROPERTY
U+W
SciTegic.value.DoubleValue
-10.931

@<SCITEGIC>MOL_PROPERTY
Grad RMS
SciTegic.value.DoubleValue
0.000000

@<SCITEGIC>MOL_PROPERTY
U
SciTegic.value.DoubleValue
47.080

@<SCITEGIC>MOL_PROPERTY
W
SciTegic.value.DoubleValue
-58.011

@<SCITEGIC>MOL_PROPERTY
W(PB)
SciTegic.value.DoubleValue
-59.914

@<SCITEGIC>MOL_PROPERTY
W(SA)
SciTegic.value.DoubleValue
1.903

@<SCITEGIC>MOL_PROPERTY
Valence
SciTegic.value.DoubleValue
1.943

@<SCITEGIC>MOL_PROPERTY
Coulomb
SciTegic.value.DoubleValue
44.572

@<SCITEGIC>MOL_PROPERTY
VdW
SciTegic.value.DoubleValue
0.565

@<SCITEGIC>MOL_PROPERTY
VdW6
SciTegic.value.DoubleValue
-4.575

@<SCITEGIC>MOL_PROPERTY
VdW12
SciTegic.value.DoubleValue
5.140

@<SCITEGIC>MOL_PROPERTY
Bond
SciTegic.value.DoubleValue
0.158

@<SCITEGIC>MOL_PROPERTY
Angle
SciTegic.value.DoubleValue
0.700

@<SCITEGIC>MOL_PROPERTY
Pdih
SciTegic.value.DoubleValue
1.085

@<SCITEGIC>MOL_PROPERTY
Idih
SciTegic.value.DoubleValue
0.000

@<SCITEGIC>MOL_PROPERTY
Tether
SciTegic.value.DoubleValue
0.000

@<TRIPOS>MOLECULE
guest-s11_confgen4.mol2 : confsearch ligand conformer 646
          20          19           1
SMALL
USER_CHARGES
 
@<TRIPOS>ATOM
       1    N1      20.576884   16.585065   23.170086 N.4        1 MOL1        -0.5919
       2    H1      21.445239   16.052932   23.050578 H          1 MOL1         0.3682
       3    H2      20.496448   16.802587   24.168303 H          1 MOL1         0.3682
       4    H3      19.805897   15.951464   22.936766 H          1 MOL1         0.3682
       5    C1      20.560506   17.835723   22.314566 C.3        1 MOL1         0.0252
       6    H4      20.678985   17.532846   21.270723 H          1 MOL1         0.0971
       7    H5      21.422712   18.446126   22.595622 H          1 MOL1         0.0971
       8    C2      19.268367   18.659393   22.471312 C.3        1 MOL1        -0.1369
       9    H6      18.406252   18.024815   22.226715 H          1 MOL1         0.0997
      10    H7      19.143730   18.956221   23.520509 H          1 MOL1         0.0997
      11    C3      19.241367   19.911584   21.559564 C.3        1 MOL1        -0.1329
      12    H8      18.291988   20.443153   21.712457 H          1 MOL1         0.0997
      13    H9      19.240472   19.588021   20.509422 H          1 MOL1         0.0997
      14    C4      20.416088   20.899742   21.775891 C.3        1 MOL1        -0.1305
      15    H10     21.370038   20.416181   21.525040 H          1 MOL1         0.0997
      16    H11     20.306587   21.734060   21.068923 H          1 MOL1         0.0997
      17    C5      20.483664   21.469276   23.211187 C.3        1 MOL1        -0.2320
      18    H12     21.271076   22.230376   23.286109 H          1 MOL1         0.1008
      19    H13     19.533530   21.940592   23.494172 H          1 MOL1         0.1008
      20    H14     20.711451   20.686133   23.944969 H          1 MOL1         0.1008
@<TRIPOS>BOND
    1     1     2    1
    2     1     3    1
    3     1     4    1
    4     1     5    1
    5     5     6    1
    6     5     7    1
    7     5     8    1
    8     8     9    1
    9     8    10    1
   10     8    11    1
   11    11    12    1
   12    11    13    1
   13    11    14    1
   14    14    15    1
   15    14    16    1
   16    14    17    1
   17    17    18    1
   18    17    19    1
   19    17    20    1
@<TRIPOS>SUBSTRUCTURE
       1 MOL1            1 RESIDUE      1      MOL     
@<SCITEGIC>MOL_PROPERTY
VConf Rank
SciTegic.value.IntegerValue
646

@<SCITEGIC>MOL_PROPERTY
Conf_Id
SciTegic.value.IntegerValue
64

@<SCITEGIC>MOL_PROPERTY
Delta U+W
SciTegic.value.DoubleValue
0.707

@<SCITEGIC>MOL_PROPERTY
U+W
SciTegic.value.DoubleValue
-11.070

@<SCITEGIC>MOL_PROPERTY
Grad RMS
SciTegic.value.DoubleValue
0.000000

@<SCITEGIC>MOL_PROPERTY
U
SciTegic.value.DoubleValue
47.077

@<SCITEGIC>MOL_PROPERTY
W
SciTegic.value.DoubleValue
-58.148

@<SCITEGIC>MOL_PROPERTY
W(PB)
SciTegic.value.DoubleValue
-60.054

@<SCITEGIC>MOL_PROPERTY
W(SA)
SciTegic.value.DoubleValue
1.906

@<SCITEGIC>MOL_PROPERTY
Valence
SciTegic.value.DoubleValue
2.039

@<SCITEGIC>MOL_PROPERTY
Coulomb
SciTegic.value.DoubleValue
44.655

@<SCITEGIC>MOL_PROPERTY
VdW
SciTegic.value.DoubleValue
0.383

@<SCITEGIC>MOL_PROPERTY
VdW6
SciTegic.value.DoubleValue
-4.912

@<SCITEGIC>MOL_PROPERTY
VdW12
SciTegic.value.DoubleValue
5.295

@<SCITEGIC>MOL_PROPERTY
Bond
SciTegic.value.DoubleValue
0.159

@<SCITEGIC>MOL_PROPERTY
Angle
SciTegic.value.DoubleValue
0.856

@<SCITEGIC>MOL_PROPERTY
Pdih
SciTegic.value.DoubleValue
1.024

@<SCITEGIC>MOL_PROPERTY
Idih
SciTegic.value.DoubleValue
0.000

@<SCITEGIC>MOL_PROPERTY
Tether
SciTegic.value.DoubleValue
0.000

@<TRIPOS>MOLECULE
guest-s11_confgen4.mol2 : confsearch ligand conformer 647
          20          19           1
SMALL
USER_CHARGES
 
@<TRIPOS>ATOM
       1    N1      22.468697   18.288252   23.831182 N.4        1 MOL1        -0.5919
       2    H1      23.197214   17.886189   23.232921 H          1 MOL1         0.3682
       3    H2      22.728784   19.263519   24.008473 H          1 MOL1         0.3682
       4    H3      22.519276   17.798612   24.730728 H          1 MOL1         0.3682
       5    C1      21.093982   18.173527   23.204029 C.3        1 MOL1         0.0252
       6    H4      20.368462   18.592114   23.906446 H          1 MOL1         0.0971
       7    H5      20.870713   17.111553   23.070831 H          1 MOL1         0.0971
       8    C2      20.983932   18.899638   21.850045 C.3        1 MOL1        -0.1369
       9    H6      21.216833   19.964094   21.980992 H          1 MOL1         0.0997
      10    H7      21.744245   18.500367   21.165745 H          1 MOL1         0.0997
      11    C3      19.589120   18.739035   21.195292 C.3        1 MOL1        -0.1329
      12    H8      19.426979   17.678593   20.957242 H          1 MOL1         0.0997
      13    H9      19.584391   19.268662   20.232621 H          1 MOL1         0.0997
      14    C4      18.403456   19.243565   22.057193 C.3        1 MOL1        -0.1305
      15    H10     17.469221   19.064408   21.506746 H          1 MOL1         0.0997
      16    H11     18.326721   18.652870   22.980214 H          1 MOL1         0.0997
      17    C5      18.494195   20.746190   22.407752 C.3        1 MOL1        -0.2320
      18    H12     18.592624   21.357871   21.501587 H          1 MOL1         0.1008
      19    H13     17.589394   21.072949   22.936400 H          1 MOL1         0.1008
      20    H14     19.350979   20.956624   23.059883 H          1 MOL1         0.1008
@<TRIPOS>BOND
    1     1     2    1
    2     1     3    1
    3     1     4    1
    4     1     5    1
    5     5     6    1
    6     5     7    1
    7     5     8    1
    8     8     9    1
    9     8    10    1
   10     8    11    1
   11    11    12    1
   12    11    13    1
   13    11    14    1
   14    14    15    1
   15    14    16    1
   16    14    17    1
   17    17    18    1
   18    17    19    1
   19    17    20    1
@<TRIPOS>SUBSTRUCTURE
       1 MOL1            1 RESIDUE      1      MOL     
@<SCITEGIC>MOL_PROPERTY
VConf Rank
SciTegic.value.IntegerValue
647

@<SCITEGIC>MOL_PROPERTY
Conf_Id
SciTegic.value.IntegerValue
22

@<SCITEGIC>MOL_PROPERTY
Delta U+W
SciTegic.value.DoubleValue
0.731

@<SCITEGIC>MOL_PROPERTY
U+W
SciTegic.value.DoubleValue
-11.047

@<SCITEGIC>MOL_PROPERTY
Grad RMS
SciTegic.value.DoubleValue
0.000000

@<SCITEGIC>MOL_PROPERTY
U
SciTegic.value.DoubleValue
47.078

@<SCITEGIC>MOL_PROPERTY
W
SciTegic.value.DoubleValue
-58.125

@<SCITEGIC>MOL_PROPERTY
W(PB)
SciTegic.value.DoubleValue
-60.031

@<SCITEGIC>MOL_PROPERTY
W(SA)
SciTegic.value.DoubleValue
1.906

@<SCITEGIC>MOL_PROPERTY
Valence
SciTegic.value.DoubleValue
2.039

@<SCITEGIC>MOL_PROPERTY
Coulomb
SciTegic.value.DoubleValue
44.655

@<SCITEGIC>MOL_PROPERTY
VdW
SciTegic.value.DoubleValue
0.383

@<SCITEGIC>MOL_PROPERTY
VdW6
SciTegic.value.DoubleValue
-4.913

@<SCITEGIC>MOL_PROPERTY
VdW12
SciTegic.value.DoubleValue
5.296

@<SCITEGIC>MOL_PROPERTY
Bond
SciTegic.value.DoubleValue
0.159

@<SCITEGIC>MOL_PROPERTY
Angle
SciTegic.value.DoubleValue
0.856

@<SCITEGIC>MOL_PROPERTY
Pdih
SciTegic.value.DoubleValue
1.024

@<SCITEGIC>MOL_PROPERTY
Idih
SciTegic.value.DoubleValue
0.000

@<SCITEGIC>MOL_PROPERTY
Tether
SciTegic.value.DoubleValue
0.000

@<TRIPOS>MOLECULE
guest-s11_confgen4.mol2 : confsearch ligand conformer 648
          20          19           1
SMALL
USER_CHARGES
 
@<TRIPOS>ATOM
       1    N1      19.529482   20.805481   24.638670 N.4        1 MOL1        -0.5919
       2    H1      18.739975   20.299733   25.052471 H          1 MOL1         0.3682
       3    H2      20.269274   20.840309   25.347052 H          1 MOL1         0.3682
       4    H3      19.217832   21.770548   24.486972 H          1 MOL1         0.3682
       5    C1      20.005688   20.158501   23.353658 C.3        1 MOL1         0.0252
       6    H4      20.825843   20.761595   22.954886 H          1 MOL1         0.0971
       7    H5      19.177006   20.184652   22.642412 H          1 MOL1         0.0971
       8    C2      20.475562   18.705713   23.546782 C.3        1 MOL1        -0.1369
       9    H6      21.223950   18.680568   24.350029 H          1 MOL1         0.0997
      10    H7      19.632429   18.091315   23.889461 H          1 MOL1         0.0997
      11    C3      21.098080   18.072630   22.276511 C.3        1 MOL1        -0.1329
      12    H8      21.476918   17.079393   22.554923 H          1 MOL1         0.0997
      13    H9      21.978980   18.647740   21.959315 H          1 MOL1         0.0997
      14    C4      20.118013   17.895313   21.087723 C.3        1 MOL1        -0.1305
      15    H10     20.456592   17.039705   20.486555 H          1 MOL1         0.0997
      16    H11     19.117269   17.628310   21.455096 H          1 MOL1         0.0997
      17    C5      20.036032   19.125749   20.153837 C.3        1 MOL1        -0.2320
      18    H12     19.618066   20.003302   20.657900 H          1 MOL1         0.1008
      19    H13     21.028180   19.394433   19.768535 H          1 MOL1         0.1008
      20    H14     19.393436   18.907621   19.291008 H          1 MOL1         0.1008
@<TRIPOS>BOND
    1     1     2    1
    2     1     3    1
    3     1     4    1
    4     1     5    1
    5     5     6    1
    6     5     7    1
    7     5     8    1
    8     8     9    1
    9     8    10    1
   10     8    11    1
   11    11    12    1
   12    11    13    1
   13    11    14    1
   14    14    15    1
   15    14    16    1
   16    14    17    1
   17    17    18    1
   18    17    19    1
   19    17    20    1
@<TRIPOS>SUBSTRUCTURE
       1 MOL1            1 RESIDUE      1      MOL     
@<SCITEGIC>MOL_PROPERTY
VConf Rank
SciTegic.value.IntegerValue
648

@<SCITEGIC>MOL_PROPERTY
Conf_Id
SciTegic.value.IntegerValue
61

@<SCITEGIC>MOL_PROPERTY
Delta U+W
SciTegic.value.DoubleValue
2.669

@<SCITEGIC>MOL_PROPERTY
U+W
SciTegic.value.DoubleValue
-9.108

@<SCITEGIC>MOL_PROPERTY
Grad RMS
SciTegic.value.DoubleValue
0.000000

@<SCITEGIC>MOL_PROPERTY
U
SciTegic.value.DoubleValue
48.916

@<SCITEGIC>MOL_PROPERTY
W
SciTegic.value.DoubleValue
-58.025

@<SCITEGIC>MOL_PROPERTY
W(PB)
SciTegic.value.DoubleValue
-59.935

@<SCITEGIC>MOL_PROPERTY
W(SA)
SciTegic.value.DoubleValue
1.911

@<SCITEGIC>MOL_PROPERTY
Valence
SciTegic.value.DoubleValue
3.785

@<SCITEGIC>MOL_PROPERTY
Coulomb
SciTegic.value.DoubleValue
44.716

@<SCITEGIC>MOL_PROPERTY
VdW
SciTegic.value.DoubleValue
0.415

@<SCITEGIC>MOL_PROPERTY
VdW6
SciTegic.value.DoubleValue
-4.836

@<SCITEGIC>MOL_PROPERTY
VdW12
SciTegic.value.DoubleValue
5.251

@<SCITEGIC>MOL_PROPERTY
Bond
SciTegic.value.DoubleValue
0.175

@<SCITEGIC>MOL_PROPERTY
Angle
SciTegic.value.DoubleValue
1.195

@<SCITEGIC>MOL_PROPERTY
Pdih
SciTegic.value.DoubleValue
2.415

@<SCITEGIC>MOL_PROPERTY
Idih
SciTegic.value.DoubleValue
0.000

@<SCITEGIC>MOL_PROPERTY
Tether
SciTegic.value.DoubleValue
0.000

@<TRIPOS>MOLECULE
guest-s11_confgen4.mol2 : confsearch ligand conformer 649
          20          19           1
SMALL
USER_CHARGES
 
@<TRIPOS>ATOM
       1    N1      21.204501   19.317470   20.412288 N.4        1 MOL1        -0.5919
       2    H1      22.059119   19.652612   19.955179 H          1 MOL1         0.3682
       3    H2      20.550541   19.060380   19.666269 H          1 MOL1         0.3682
       4    H3      20.797555   20.113815   20.909535 H          1 MOL1         0.3682
       5    C1      21.484572   18.151696   21.341322 C.3        1 MOL1         0.0252
       6    H4      22.228722   18.464411   22.078742 H          1 MOL1         0.0971
       7    H5      21.925728   17.358309   20.731832 H          1 MOL1         0.0971
       8    C2      20.236654   17.596180   22.059357 C.3        1 MOL1        -0.1369
       9    H6      19.394274   17.535414   21.357560 H          1 MOL1         0.0997
      10    H7      20.455556   16.561929   22.356474 H          1 MOL1         0.0997
      11    C3      19.823903   18.378279   23.332828 C.3        1 MOL1        -0.1329
      12    H8      20.658039   18.379489   24.048147 H          1 MOL1         0.0997
      13    H9      19.005142   17.830541   23.819751 H          1 MOL1         0.0997
      14    C4      19.365935   19.832464   23.072207 C.3        1 MOL1        -0.1305
      15    H10     20.213334   20.437292   22.725869 H          1 MOL1         0.0997
      16    H11     18.605728   19.848460   22.278626 H          1 MOL1         0.0997
      17    C5      18.786444   20.482913   24.346619 C.3        1 MOL1        -0.2320
      18    H12     18.475391   21.516648   24.147401 H          1 MOL1         0.1008
      19    H13     17.908479   19.931773   24.708068 H          1 MOL1         0.1008
      20    H14     19.531680   20.504954   25.152477 H          1 MOL1         0.1008
@<TRIPOS>BOND
    1     1     2    1
    2     1     3    1
    3     1     4    1
    4     1     5    1
    5     5     6    1
    6     5     7    1
    7     5     8    1
    8     8     9    1
    9     8    10    1
   10     8    11    1
   11    11    12    1
   12    11    13    1
   13    11    14    1
   14    14    15    1
   15    14    16    1
   16    14    17    1
   17    17    18    1
   18    17    19    1
   19    17    20    1
@<TRIPOS>SUBSTRUCTURE
       1 MOL1            1 RESIDUE      1      MOL     
@<SCITEGIC>MOL_PROPERTY
VConf Rank
SciTegic.value.IntegerValue
649

@<SCITEGIC>MOL_PROPERTY
Conf_Id
SciTegic.value.IntegerValue
69

@<SCITEGIC>MOL_PROPERTY
Delta U+W
SciTegic.value.DoubleValue
2.811

@<SCITEGIC>MOL_PROPERTY
U+W
SciTegic.value.DoubleValue
-8.967

@<SCITEGIC>MOL_PROPERTY
Grad RMS
SciTegic.value.DoubleValue
0.000000

@<SCITEGIC>MOL_PROPERTY
U
SciTegic.value.DoubleValue
49.216

@<SCITEGIC>MOL_PROPERTY
W
SciTegic.value.DoubleValue
-58.183

@<SCITEGIC>MOL_PROPERTY
W(PB)
SciTegic.value.DoubleValue
-60.064

@<SCITEGIC>MOL_PROPERTY
W(SA)
SciTegic.value.DoubleValue
1.881

@<SCITEGIC>MOL_PROPERTY
Valence
SciTegic.value.DoubleValue
2.929

@<SCITEGIC>MOL_PROPERTY
Coulomb
SciTegic.value.DoubleValue
46.006

@<SCITEGIC>MOL_PROPERTY
VdW
SciTegic.value.DoubleValue
0.281

@<SCITEGIC>MOL_PROPERTY
VdW6
SciTegic.value.DoubleValue
-4.909

@<SCITEGIC>MOL_PROPERTY
VdW12
SciTegic.value.DoubleValue
5.190

@<SCITEGIC>MOL_PROPERTY
Bond
SciTegic.value.DoubleValue
0.156

@<SCITEGIC>MOL_PROPERTY
Angle
SciTegic.value.DoubleValue
0.974

@<SCITEGIC>MOL_PROPERTY
Pdih
SciTegic.value.DoubleValue
1.799

@<SCITEGIC>MOL_PROPERTY
Idih
SciTegic.value.DoubleValue
0.000

@<SCITEGIC>MOL_PROPERTY
Tether
SciTegic.value.DoubleValue
0.000

@<TRIPOS>MOLECULE
guest-s11_confgen4.mol2 : confsearch ligand conformer 650
          20          19           1
SMALL
USER_CHARGES
 
@<TRIPOS>ATOM
       1    N1      20.809213   16.997101   22.572096 N.4        1 MOL1        -0.5919
       2    H1      21.334116   17.700264   22.045723 H          1 MOL1         0.3682
       3    H2      21.281638   16.879258   23.473889 H          1 MOL1         0.3682
       4    H3      20.906112   16.109235   22.068164 H          1 MOL1         0.3682
       5    C1      19.354130   17.388248   22.746183 C.3        1 MOL1         0.0252
       6    H4      18.872236   16.580362   23.303547 H          1 MOL1         0.0971
       7    H5      18.887195   17.442856   21.759102 H          1 MOL1         0.0971
       8    C2      19.138223   18.716171   23.502149 C.3        1 MOL1        -0.1369
       9    H6      18.123612   18.699865   23.921876 H          1 MOL1         0.0997
      10    H7      19.818399   18.774699   24.362236 H          1 MOL1         0.0997
      11    C3      19.267590   19.986846   22.623274 C.3        1 MOL1        -0.1329
      12    H8      18.981866   20.854845   23.233536 H          1 MOL1         0.0997
      13    H9      18.540009   19.939012   21.801202 H          1 MOL1         0.0997
      14    C4      20.682538   20.226387   22.046341 C.3        1 MOL1        -0.1305
      15    H10     21.429064   20.168373   22.850877 H          1 MOL1         0.0997
      16    H11     20.927793   19.445718   21.315412 H          1 MOL1         0.0997
      17    C5      20.787751   21.600717   21.351239 C.3        1 MOL1        -0.2320
      18    H12     20.588445   22.417532   22.057152 H          1 MOL1         0.1008
      19    H13     21.794103   21.750986   20.939262 H          1 MOL1         0.1008
      20    H14     20.070040   21.680908   20.524359 H          1 MOL1         0.1008
@<TRIPOS>BOND
    1     1     2    1
    2     1     3    1
    3     1     4    1
    4     1     5    1
    5     5     6    1
    6     5     7    1
    7     5     8    1
    8     8     9    1
    9     8    10    1
   10     8    11    1
   11    11    12    1
   12    11    13    1
   13    11    14    1
   14    14    15    1
   15    14    16    1
   16    14    17    1
   17    17    18    1
   18    17    19    1
   19    17    20    1
@<TRIPOS>SUBSTRUCTURE
       1 MOL1            1 RESIDUE      1      MOL     
@<SCITEGIC>MOL_PROPERTY
VConf Rank
SciTegic.value.IntegerValue
650

@<SCITEGIC>MOL_PROPERTY
Conf_Id
SciTegic.value.IntegerValue
26

@<SCITEGIC>MOL_PROPERTY
Delta U+W
SciTegic.value.DoubleValue
2.809

@<SCITEGIC>MOL_PROPERTY
U+W
SciTegic.value.DoubleValue
-8.969

@<SCITEGIC>MOL_PROPERTY
Grad RMS
SciTegic.value.DoubleValue
0.000000

@<SCITEGIC>MOL_PROPERTY
U
SciTegic.value.DoubleValue
49.216

@<SCITEGIC>MOL_PROPERTY
W
SciTegic.value.DoubleValue
-58.185

@<SCITEGIC>MOL_PROPERTY
W(PB)
SciTegic.value.DoubleValue
-60.088

@<SCITEGIC>MOL_PROPERTY
W(SA)
SciTegic.value.DoubleValue
1.903

@<SCITEGIC>MOL_PROPERTY
Valence
SciTegic.value.DoubleValue
2.929

@<SCITEGIC>MOL_PROPERTY
Coulomb
SciTegic.value.DoubleValue
46.006

@<SCITEGIC>MOL_PROPERTY
VdW
SciTegic.value.DoubleValue
0.281

@<SCITEGIC>MOL_PROPERTY
VdW6
SciTegic.value.DoubleValue
-4.909

@<SCITEGIC>MOL_PROPERTY
VdW12
SciTegic.value.DoubleValue
5.190

@<SCITEGIC>MOL_PROPERTY
Bond
SciTegic.value.DoubleValue
0.156

@<SCITEGIC>MOL_PROPERTY
Angle
SciTegic.value.DoubleValue
0.974

@<SCITEGIC>MOL_PROPERTY
Pdih
SciTegic.value.DoubleValue
1.799

@<SCITEGIC>MOL_PROPERTY
Idih
SciTegic.value.DoubleValue
0.000

@<SCITEGIC>MOL_PROPERTY
Tether
SciTegic.value.DoubleValue
0.000

@<TRIPOS>MOLECULE
guest-s11_confgen4.mol2 : confsearch ligand conformer 651
          20          19           1
SMALL
USER_CHARGES
 
@<TRIPOS>ATOM
       1    N1      21.482334   17.451108   23.492301 N.4        1 MOL1        -0.5919
       2    H1      21.160857   17.083794   22.591928 H          1 MOL1         0.3682
       3    H2      22.499904   17.555146   23.430947 H          1 MOL1         0.3682
       4    H3      21.298162   16.727718   24.195222 H          1 MOL1         0.3682
       5    C1      20.801619   18.760781   23.839264 C.3        1 MOL1         0.0252
       6    H4      21.166943   19.076297   24.820333 H          1 MOL1         0.0971
       7    H5      19.727642   18.574355   23.921431 H          1 MOL1         0.0971
       8    C2      21.057342   19.882982   22.812833 C.3        1 MOL1        -0.1369
       9    H6      20.595555   20.808976   23.178647 H          1 MOL1         0.0997
      10    H7      22.135373   20.085504   22.763098 H          1 MOL1         0.0997
      11    C3      20.531187   19.566257   21.388108 C.3        1 MOL1        -0.1329
      12    H8      21.112112   18.737260   20.962083 H          1 MOL1         0.0997
      13    H9      20.727300   20.430510   20.738643 H          1 MOL1         0.0997
      14    C4      19.023700   19.212388   21.315368 C.3        1 MOL1        -0.1305
      15    H10     18.766522   18.986609   20.270986 H          1 MOL1         0.0997
      16    H11     18.821020   18.292982   21.881150 H          1 MOL1         0.0997
      17    C5      18.102801   20.346203   21.820594 C.3        1 MOL1        -0.2320
      18    H12     18.297226   21.282480   21.281571 H          1 MOL1         0.1008
      19    H13     17.048444   20.082890   21.666058 H          1 MOL1         0.1008
      20    H14     18.242830   20.531155   22.892875 H          1 MOL1         0.1008
@<TRIPOS>BOND
    1     1     2    1
    2     1     3    1
    3     1     4    1
    4     1     5    1
    5     5     6    1
    6     5     7    1
    7     5     8    1
    8     8     9    1
    9     8    10    1
   10     8    11    1
   11    11    12    1
   12    11    13    1
   13    11    14    1
   14    14    15    1
   15    14    16    1
   16    14    17    1
   17    17    18    1
   18    17    19    1
   19    17    20    1
@<TRIPOS>SUBSTRUCTURE
       1 MOL1            1 RESIDUE      1      MOL     
@<SCITEGIC>MOL_PROPERTY
VConf Rank
SciTegic.value.IntegerValue
651

@<SCITEGIC>MOL_PROPERTY
Conf_Id
SciTegic.value.IntegerValue
2

@<SCITEGIC>MOL_PROPERTY
Delta U+W
SciTegic.value.DoubleValue
0.994

@<SCITEGIC>MOL_PROPERTY
U+W
SciTegic.value.DoubleValue
-10.784

@<SCITEGIC>MOL_PROPERTY
Grad RMS
SciTegic.value.DoubleValue
0.000000

@<SCITEGIC>MOL_PROPERTY
U
SciTegic.value.DoubleValue
47.562

@<SCITEGIC>MOL_PROPERTY
W
SciTegic.value.DoubleValue
-58.346

@<SCITEGIC>MOL_PROPERTY
W(PB)
SciTegic.value.DoubleValue
-60.221

@<SCITEGIC>MOL_PROPERTY
W(SA)
SciTegic.value.DoubleValue
1.875

@<SCITEGIC>MOL_PROPERTY
Valence
SciTegic.value.DoubleValue
2.149

@<SCITEGIC>MOL_PROPERTY
Coulomb
SciTegic.value.DoubleValue
45.034

@<SCITEGIC>MOL_PROPERTY
VdW
SciTegic.value.DoubleValue
0.378

@<SCITEGIC>MOL_PROPERTY
VdW6
SciTegic.value.DoubleValue
-5.599

@<SCITEGIC>MOL_PROPERTY
VdW12
SciTegic.value.DoubleValue
5.977

@<SCITEGIC>MOL_PROPERTY
Bond
SciTegic.value.DoubleValue
0.185

@<SCITEGIC>MOL_PROPERTY
Angle
SciTegic.value.DoubleValue
0.935

@<SCITEGIC>MOL_PROPERTY
Pdih
SciTegic.value.DoubleValue
1.028

@<SCITEGIC>MOL_PROPERTY
Idih
SciTegic.value.DoubleValue
0.000

@<SCITEGIC>MOL_PROPERTY
Tether
SciTegic.value.DoubleValue
0.000

@<TRIPOS>MOLECULE
guest-s11_confgen4.mol2 : confsearch ligand conformer 652
          20          19           1
SMALL
USER_CHARGES
 
@<TRIPOS>ATOM
       1    N1      20.421269   20.237119   24.575071 N.4        1 MOL1        -0.5919
       2    H1      19.654687   20.150827   25.249565 H          1 MOL1         0.3682
       3    H2      20.975026   19.377622   24.634721 H          1 MOL1         0.3682
       4    H3      21.019792   21.003606   24.899998 H          1 MOL1         0.3682
       5    C1      19.909871   20.478558   23.168239 C.3        1 MOL1         0.0252
       6    H4      20.773272   20.593756   22.507784 H          1 MOL1         0.0971
       7    H5      19.357659   21.422251   23.172009 H          1 MOL1         0.0971
       8    C2      18.997165   19.353699   22.639140 C.3        1 MOL1        -0.1369
       9    H6      18.116865   19.269318   23.289978 H          1 MOL1         0.0997
      10    H7      18.613261   19.644115   21.652829 H          1 MOL1         0.0997
      11    C3      19.693415   17.970778   22.540353 C.3        1 MOL1        -0.1329
      12    H8      18.980600   17.245014   22.125189 H          1 MOL1         0.0997
      13    H9      19.929751   17.609876   23.550354 H          1 MOL1         0.0997
      14    C4      20.986532   17.953337   21.685612 C.3        1 MOL1        -0.1305
      15    H10     21.750180   18.600556   22.137768 H          1 MOL1         0.0997
      16    H11     21.404302   16.936955   21.702451 H          1 MOL1         0.0997
      17    C5      20.755568   18.372058   20.215861 C.3        1 MOL1        -0.2320
      18    H12     20.445461   19.421675   20.140086 H          1 MOL1         0.1008
      19    H13     21.679219   18.258000   19.633843 H          1 MOL1         0.1008
      20    H14     19.983319   17.750154   19.744875 H          1 MOL1         0.1008
@<TRIPOS>BOND
    1     1     2    1
    2     1     3    1
    3     1     4    1
    4     1     5    1
    5     5     6    1
    6     5     7    1
    7     5     8    1
    8     8     9    1
    9     8    10    1
   10     8    11    1
   11    11    12    1
   12    11    13    1
   13    11    14    1
   14    14    15    1
   15    14    16    1
   16    14    17    1
   17    17    18    1
   18    17    19    1
   19    17    20    1
@<TRIPOS>SUBSTRUCTURE
       1 MOL1            1 RESIDUE      1      MOL     
@<SCITEGIC>MOL_PROPERTY
VConf Rank
SciTegic.value.IntegerValue
652

@<SCITEGIC>MOL_PROPERTY
Conf_Id
SciTegic.value.IntegerValue
1

@<SCITEGIC>MOL_PROPERTY
Delta U+W
SciTegic.value.DoubleValue
1.032

@<SCITEGIC>MOL_PROPERTY
U+W
SciTegic.value.DoubleValue
-10.746

@<SCITEGIC>MOL_PROPERTY
Grad RMS
SciTegic.value.DoubleValue
0.000000

@<SCITEGIC>MOL_PROPERTY
U
SciTegic.value.DoubleValue
47.562

@<SCITEGIC>MOL_PROPERTY
W
SciTegic.value.DoubleValue
-58.308

@<SCITEGIC>MOL_PROPERTY
W(PB)
SciTegic.value.DoubleValue
-60.184

@<SCITEGIC>MOL_PROPERTY
W(SA)
SciTegic.value.DoubleValue
1.877

@<SCITEGIC>MOL_PROPERTY
Valence
SciTegic.value.DoubleValue
2.149

@<SCITEGIC>MOL_PROPERTY
Coulomb
SciTegic.value.DoubleValue
45.035

@<SCITEGIC>MOL_PROPERTY
VdW
SciTegic.value.DoubleValue
0.378

@<SCITEGIC>MOL_PROPERTY
VdW6
SciTegic.value.DoubleValue
-5.599

@<SCITEGIC>MOL_PROPERTY
VdW12
SciTegic.value.DoubleValue
5.978

@<SCITEGIC>MOL_PROPERTY
Bond
SciTegic.value.DoubleValue
0.185

@<SCITEGIC>MOL_PROPERTY
Angle
SciTegic.value.DoubleValue
0.935

@<SCITEGIC>MOL_PROPERTY
Pdih
SciTegic.value.DoubleValue
1.028

@<SCITEGIC>MOL_PROPERTY
Idih
SciTegic.value.DoubleValue
0.000

@<SCITEGIC>MOL_PROPERTY
Tether
SciTegic.value.DoubleValue
0.000

@<TRIPOS>MOLECULE
guest-s11_confgen4.mol2 : confsearch ligand conformer 653
          20          19           1
SMALL
USER_CHARGES
 
@<TRIPOS>ATOM
       1    N1      19.036413   18.318224   20.649339 N.4        1 MOL1        -0.5919
       2    H1      18.046780   18.568498   20.559458 H          1 MOL1         0.3682
       3    H2      19.582709   19.129032   20.344652 H          1 MOL1         0.3682
       4    H3      19.215960   17.566149   19.975921 H          1 MOL1         0.3682
       5    C1      19.387079   17.902057   22.064823 C.3        1 MOL1         0.0252
       6    H4      20.441271   17.621109   22.081213 H          1 MOL1         0.0971
       7    H5      18.798260   17.011425   22.300602 H          1 MOL1         0.0971
       8    C2      19.104356   18.989934   23.122795 C.3        1 MOL1        -0.1369
       9    H6      18.039085   19.250489   23.066848 H          1 MOL1         0.0997
      10    H7      19.258567   18.570533   24.125761 H          1 MOL1         0.0997
      11    C3      19.946687   20.284469   22.964745 C.3        1 MOL1        -0.1329
      12    H8      19.402220   21.102239   23.456916 H          1 MOL1         0.0997
      13    H9      20.016671   20.574582   21.908497 H          1 MOL1         0.0997
      14    C4      21.362930   20.227230   23.593246 C.3        1 MOL1        -0.1305
      15    H10     21.821308   21.221812   23.500286 H          1 MOL1         0.0997
      16    H11     21.282285   20.031088   24.671582 H          1 MOL1         0.0997
      17    C5      22.309901   19.189106   22.951783 C.3        1 MOL1        -0.2320
      18    H12     22.324652   19.284325   21.858404 H          1 MOL1         0.1008
      19    H13     23.335929   19.332942   23.314422 H          1 MOL1         0.1008
      20    H14     22.016225   18.165518   23.212696 H          1 MOL1         0.1008
@<TRIPOS>BOND
    1     1     2    1
    2     1     3    1
    3     1     4    1
    4     1     5    1
    5     5     6    1
    6     5     7    1
    7     5     8    1
    8     8     9    1
    9     8    10    1
   10     8    11    1
   11    11    12    1
   12    11    13    1
   13    11    14    1
   14    14    15    1
   15    14    16    1
   16    14    17    1
   17    17    18    1
   18    17    19    1
   19    17    20    1
@<TRIPOS>SUBSTRUCTURE
       1 MOL1            1 RESIDUE      1      MOL     
@<SCITEGIC>MOL_PROPERTY
VConf Rank
SciTegic.value.IntegerValue
653

@<SCITEGIC>MOL_PROPERTY
Conf_Id
SciTegic.value.IntegerValue
80

@<SCITEGIC>MOL_PROPERTY
Delta U+W
SciTegic.value.DoubleValue
2.920

@<SCITEGIC>MOL_PROPERTY
U+W
SciTegic.value.DoubleValue
-8.857

@<SCITEGIC>MOL_PROPERTY
Grad RMS
SciTegic.value.DoubleValue
0.000000

@<SCITEGIC>MOL_PROPERTY
U
SciTegic.value.DoubleValue
49.434

@<SCITEGIC>MOL_PROPERTY
W
SciTegic.value.DoubleValue
-58.292

@<SCITEGIC>MOL_PROPERTY
W(PB)
SciTegic.value.DoubleValue
-60.170

@<SCITEGIC>MOL_PROPERTY
W(SA)
SciTegic.value.DoubleValue
1.879

@<SCITEGIC>MOL_PROPERTY
Valence
SciTegic.value.DoubleValue
3.798

@<SCITEGIC>MOL_PROPERTY
Coulomb
SciTegic.value.DoubleValue
45.253

@<SCITEGIC>MOL_PROPERTY
VdW
SciTegic.value.DoubleValue
0.384

@<SCITEGIC>MOL_PROPERTY
VdW6
SciTegic.value.DoubleValue
-5.595

@<SCITEGIC>MOL_PROPERTY
VdW12
SciTegic.value.DoubleValue
5.979

@<SCITEGIC>MOL_PROPERTY
Bond
SciTegic.value.DoubleValue
0.198

@<SCITEGIC>MOL_PROPERTY
Angle
SciTegic.value.DoubleValue
1.368

@<SCITEGIC>MOL_PROPERTY
Pdih
SciTegic.value.DoubleValue
2.231

@<SCITEGIC>MOL_PROPERTY
Idih
SciTegic.value.DoubleValue
0.000

@<SCITEGIC>MOL_PROPERTY
Tether
SciTegic.value.DoubleValue
0.000

@<TRIPOS>MOLECULE
guest-s11_confgen4.mol2 : confsearch ligand conformer 654
          20          19           1
SMALL
USER_CHARGES
 
@<TRIPOS>ATOM
       1    N1      22.478165   18.987509   22.032815 N.4        1 MOL1        -0.5919
       2    H1      22.798763   18.187001   21.479197 H          1 MOL1         0.3682
       3    H2      23.261330   19.647353   22.083853 H          1 MOL1         0.3682
       4    H3      22.309612   18.649405   22.984636 H          1 MOL1         0.3682
       5    C1      21.240456   19.627964   21.434775 C.3        1 MOL1         0.0252
       6    H4      21.509887   19.999339   20.442298 H          1 MOL1         0.0971
       7    H5      20.974075   20.486554   22.053144 H          1 MOL1         0.0971
       8    C2      20.040545   18.665484   21.306041 C.3        1 MOL1        -0.1369
       9    H6      19.234324   19.161834   20.749927 H          1 MOL1         0.0997
      10    H7      20.352221   17.813837   20.686868 H          1 MOL1         0.0997
      11    C3      19.489339   18.130127   22.655074 C.3        1 MOL1        -0.1329
      12    H8      20.311839   17.867483   23.332740 H          1 MOL1         0.0997
      13    H9      18.964417   17.186156   22.453081 H          1 MOL1         0.0997
      14    C4      18.489298   19.070803   23.375553 C.3        1 MOL1        -0.1305
      15    H10     17.620270   19.253778   22.728180 H          1 MOL1         0.0997
      16    H11     18.101799   18.547960   24.261232 H          1 MOL1         0.0997
      17    C5      19.087421   20.421701   23.826388 C.3        1 MOL1        -0.2320
      18    H12     19.281374   21.078416   22.970141 H          1 MOL1         0.1008
      19    H13     18.385507   20.949109   24.485240 H          1 MOL1         0.1008
      20    H14     20.023890   20.278433   24.380699 H          1 MOL1         0.1008
@<TRIPOS>BOND
    1     1     2    1
    2     1     3    1
    3     1     4    1
    4     1     5    1
    5     5     6    1
    6     5     7    1
    7     5     8    1
    8     8     9    1
    9     8    10    1
   10     8    11    1
   11    11    12    1
   12    11    13    1
   13    11    14    1
   14    14    15    1
   15    14    16    1
   16    14    17    1
   17    17    18    1
   18    17    19    1
   19    17    20    1
@<TRIPOS>SUBSTRUCTURE
       1 MOL1            1 RESIDUE      1      MOL     
@<SCITEGIC>MOL_PROPERTY
VConf Rank
SciTegic.value.IntegerValue
654

@<SCITEGIC>MOL_PROPERTY
Conf_Id
SciTegic.value.IntegerValue
65

@<SCITEGIC>MOL_PROPERTY
Delta U+W
SciTegic.value.DoubleValue
2.949

@<SCITEGIC>MOL_PROPERTY
U+W
SciTegic.value.DoubleValue
-8.829

@<SCITEGIC>MOL_PROPERTY
Grad RMS
SciTegic.value.DoubleValue
0.000000

@<SCITEGIC>MOL_PROPERTY
U
SciTegic.value.DoubleValue
49.435

@<SCITEGIC>MOL_PROPERTY
W
SciTegic.value.DoubleValue
-58.263

@<SCITEGIC>MOL_PROPERTY
W(PB)
SciTegic.value.DoubleValue
-60.125

@<SCITEGIC>MOL_PROPERTY
W(SA)
SciTegic.value.DoubleValue
1.862

@<SCITEGIC>MOL_PROPERTY
Valence
SciTegic.value.DoubleValue
3.797

@<SCITEGIC>MOL_PROPERTY
Coulomb
SciTegic.value.DoubleValue
45.253

@<SCITEGIC>MOL_PROPERTY
VdW
SciTegic.value.DoubleValue
0.384

@<SCITEGIC>MOL_PROPERTY
VdW6
SciTegic.value.DoubleValue
-5.596

@<SCITEGIC>MOL_PROPERTY
VdW12
SciTegic.value.DoubleValue
5.980

@<SCITEGIC>MOL_PROPERTY
Bond
SciTegic.value.DoubleValue
0.198

@<SCITEGIC>MOL_PROPERTY
Angle
SciTegic.value.DoubleValue
1.369

@<SCITEGIC>MOL_PROPERTY
Pdih
SciTegic.value.DoubleValue
2.230

@<SCITEGIC>MOL_PROPERTY
Idih
SciTegic.value.DoubleValue
0.000

@<SCITEGIC>MOL_PROPERTY
Tether
SciTegic.value.DoubleValue
0.000

@<TRIPOS>MOLECULE
guest-s11_confgen4.mol2 : confsearch ligand conformer 655
          20          19           1
SMALL
USER_CHARGES
 
@<TRIPOS>ATOM
       1    N1      21.756135   19.554108   21.412570 N.4        1 MOL1        -0.5919
       2    H1      22.037771   19.582160   20.426884 H          1 MOL1         0.3682
       3    H2      21.048662   20.282450   21.549409 H          1 MOL1         0.3682
       4    H3      22.577723   19.819306   21.964900 H          1 MOL1         0.3682
       5    C1      21.228358   18.188982   21.809354 C.3        1 MOL1         0.0252
       6    H4      22.035903   17.472082   21.637755 H          1 MOL1         0.0971
       7    H5      20.397475   17.928454   21.148326 H          1 MOL1         0.0971
       8    C2      20.776385   18.095360   23.280872 C.3        1 MOL1        -0.1369
       9    H6      20.817054   17.038359   23.575667 H          1 MOL1         0.0997
      10    H7      21.499309   18.612728   23.925481 H          1 MOL1         0.0997
      11    C3      19.340151   18.611118   23.565626 C.3        1 MOL1        -0.1329
      12    H8      19.133241   18.434762   24.630338 H          1 MOL1         0.0997
      13    H9      18.607811   18.000240   23.019757 H          1 MOL1         0.0997
      14    C4      19.101875   20.114573   23.273444 C.3        1 MOL1        -0.1305
      15    H10     18.404935   20.510984   24.025369 H          1 MOL1         0.0997
      16    H11     20.032002   20.683747   23.404463 H          1 MOL1         0.0997
      17    C5      18.487105   20.372289   21.877214 C.3        1 MOL1        -0.2320
      18    H12     19.088189   19.943091   21.068460 H          1 MOL1         0.1008
      19    H13     17.483715   19.931802   21.810113 H          1 MOL1         0.1008
      20    H14     18.387626   21.449622   21.691103 H          1 MOL1         0.1008
@<TRIPOS>BOND
    1     1     2    1
    2     1     3    1
    3     1     4    1
    4     1     5    1
    5     5     6    1
    6     5     7    1
    7     5     8    1
    8     8     9    1
    9     8    10    1
   10     8    11    1
   11    11    12    1
   12    11    13    1
   13    11    14    1
   14    14    15    1
   15    14    16    1
   16    14    17    1
   17    17    18    1
   18    17    19    1
   19    17    20    1
@<TRIPOS>SUBSTRUCTURE
       1 MOL1            1 RESIDUE      1      MOL     
@<SCITEGIC>MOL_PROPERTY
VConf Rank
SciTegic.value.IntegerValue
655

@<SCITEGIC>MOL_PROPERTY
Conf_Id
SciTegic.value.IntegerValue
77

@<SCITEGIC>MOL_PROPERTY
Delta U+W
SciTegic.value.DoubleValue
5.366

@<SCITEGIC>MOL_PROPERTY
U+W
SciTegic.value.DoubleValue
-6.412

@<SCITEGIC>MOL_PROPERTY
Grad RMS
SciTegic.value.DoubleValue
0.000000

@<SCITEGIC>MOL_PROPERTY
U
SciTegic.value.DoubleValue
51.542

@<SCITEGIC>MOL_PROPERTY
W
SciTegic.value.DoubleValue
-57.954

@<SCITEGIC>MOL_PROPERTY
W(PB)
SciTegic.value.DoubleValue
-59.811

@<SCITEGIC>MOL_PROPERTY
W(SA)
SciTegic.value.DoubleValue
1.857

@<SCITEGIC>MOL_PROPERTY
Valence
SciTegic.value.DoubleValue
5.347

@<SCITEGIC>MOL_PROPERTY
Coulomb
SciTegic.value.DoubleValue
45.870

@<SCITEGIC>MOL_PROPERTY
VdW
SciTegic.value.DoubleValue
0.325

@<SCITEGIC>MOL_PROPERTY
VdW6
SciTegic.value.DoubleValue
-6.161

@<SCITEGIC>MOL_PROPERTY
VdW12
SciTegic.value.DoubleValue
6.486

@<SCITEGIC>MOL_PROPERTY
Bond
SciTegic.value.DoubleValue
0.201

@<SCITEGIC>MOL_PROPERTY
Angle
SciTegic.value.DoubleValue
1.484

@<SCITEGIC>MOL_PROPERTY
Pdih
SciTegic.value.DoubleValue
3.662

@<SCITEGIC>MOL_PROPERTY
Idih
SciTegic.value.DoubleValue
0.000

@<SCITEGIC>MOL_PROPERTY
Tether
SciTegic.value.DoubleValue
0.000

@<TRIPOS>MOLECULE
guest-s11_confgen4.mol2 : confsearch ligand conformer 656
          20          19           1
SMALL
USER_CHARGES
 
@<TRIPOS>ATOM
       1    N1      19.162244   18.063848   21.087653 N.4        1 MOL1        -0.5919
       2    H1      19.177148   18.480977   20.151604 H          1 MOL1         0.3682
       3    H2      20.125318   17.803307   21.320748 H          1 MOL1         0.3682
       4    H3      18.618578   17.197003   21.019180 H          1 MOL1         0.3682
       5    C1      18.581584   19.013515   22.117473 C.3        1 MOL1         0.0252
       6    H4      18.528461   18.497537   23.079838 H          1 MOL1         0.0971
       7    H5      17.561183   19.244323   21.799623 H          1 MOL1         0.0971
       8    C2      19.370676   20.329582   22.271460 C.3        1 MOL1        -0.1369
       9    H6      19.663619   20.705361   21.282125 H          1 MOL1         0.0997
      10    H7      18.686624   21.082103   22.685702 H          1 MOL1         0.0997
      11    C3      20.609837   20.252523   23.203343 C.3        1 MOL1        -0.1329
      12    H8      20.294037   20.006842   24.226757 H          1 MOL1         0.0997
      13    H9      21.038473   21.262561   23.263513 H          1 MOL1         0.0997
      14    C4      21.729094   19.283159   22.744957 C.3        1 MOL1        -0.1305
      15    H10     21.735757   19.193827   21.650316 H          1 MOL1         0.0997
      16    H11     22.701665   19.720713   23.011249 H          1 MOL1         0.0997
      17    C5      21.638574   17.890809   23.413530 C.3        1 MOL1        -0.2320
      18    H12     22.414265   17.221259   23.019592 H          1 MOL1         0.1008
      19    H13     21.792572   17.972493   24.497474 H          1 MOL1         0.1008
      20    H14     20.666163   17.412126   23.255821 H          1 MOL1         0.1008
@<TRIPOS>BOND
    1     1     2    1
    2     1     3    1
    3     1     4    1
    4     1     5    1
    5     5     6    1
    6     5     7    1
    7     5     8    1
    8     8     9    1
    9     8    10    1
   10     8    11    1
   11    11    12    1
   12    11    13    1
   13    11    14    1
   14    14    15    1
   15    14    16    1
   16    14    17    1
   17    17    18    1
   18    17    19    1
   19    17    20    1
@<TRIPOS>SUBSTRUCTURE
       1 MOL1            1 RESIDUE      1      MOL     
@<SCITEGIC>MOL_PROPERTY
VConf Rank
SciTegic.value.IntegerValue
656

@<SCITEGIC>MOL_PROPERTY
Conf_Id
SciTegic.value.IntegerValue
67

@<SCITEGIC>MOL_PROPERTY
Delta U+W
SciTegic.value.DoubleValue
5.353

@<SCITEGIC>MOL_PROPERTY
U+W
SciTegic.value.DoubleValue
-6.425

@<SCITEGIC>MOL_PROPERTY
Grad RMS
SciTegic.value.DoubleValue
0.000000

@<SCITEGIC>MOL_PROPERTY
U
SciTegic.value.DoubleValue
51.541

@<SCITEGIC>MOL_PROPERTY
W
SciTegic.value.DoubleValue
-57.966

@<SCITEGIC>MOL_PROPERTY
W(PB)
SciTegic.value.DoubleValue
-59.821

@<SCITEGIC>MOL_PROPERTY
W(SA)
SciTegic.value.DoubleValue
1.855

@<SCITEGIC>MOL_PROPERTY
Valence
SciTegic.value.DoubleValue
5.347

@<SCITEGIC>MOL_PROPERTY
Coulomb
SciTegic.value.DoubleValue
45.870

@<SCITEGIC>MOL_PROPERTY
VdW
SciTegic.value.DoubleValue
0.325

@<SCITEGIC>MOL_PROPERTY
VdW6
SciTegic.value.DoubleValue
-6.161

@<SCITEGIC>MOL_PROPERTY
VdW12
SciTegic.value.DoubleValue
6.486

@<SCITEGIC>MOL_PROPERTY
Bond
SciTegic.value.DoubleValue
0.201

@<SCITEGIC>MOL_PROPERTY
Angle
SciTegic.value.DoubleValue
1.485

@<SCITEGIC>MOL_PROPERTY
Pdih
SciTegic.value.DoubleValue
3.662

@<SCITEGIC>MOL_PROPERTY
Idih
SciTegic.value.DoubleValue
0.000

@<SCITEGIC>MOL_PROPERTY
Tether
SciTegic.value.DoubleValue
0.000

@<TRIPOS>MOLECULE
guest-s11_confgen4.mol2 : confsearch ligand conformer 657
          20          19           1
SMALL
USER_CHARGES
 
@<TRIPOS>ATOM
       1    N1      22.995842   17.639257   22.298993 N.4        1 MOL1        -0.5919
       2    H1      23.261682   17.944567   21.357450 H          1 MOL1         0.3682
       3    H2      23.858079   17.598268   22.852588 H          1 MOL1         0.3682
       4    H3      22.649361   16.678174   22.217389 H          1 MOL1         0.3682
       5    C1      21.968319   18.560864   22.924553 C.3        1 MOL1         0.0252
       6    H4      22.413859   19.555864   23.008134 H          1 MOL1         0.0971
       7    H5      21.755467   18.194394   23.932476 H          1 MOL1         0.0971
       8    C2      20.660448   18.645299   22.117330 C.3        1 MOL1        -0.1369
       9    H6      20.880981   18.998449   21.101103 H          1 MOL1         0.0997
      10    H7      20.224842   17.641668   22.022251 H          1 MOL1         0.0997
      11    C3      19.641596   19.593370   22.788025 C.3        1 MOL1        -0.1329
      12    H8      20.082613   20.595186   22.886313 H          1 MOL1         0.0997
      13    H9      19.427188   19.239990   23.806329 H          1 MOL1         0.0997
      14    C4      18.324142   19.686064   21.985990 C.3        1 MOL1        -0.1305
      15    H10     18.533826   20.041225   20.967196 H          1 MOL1         0.0997
      16    H11     17.878437   18.686251   21.887160 H          1 MOL1         0.0997
      17    C5      17.309360   20.634356   22.659739 C.3        1 MOL1        -0.2320
      18    H12     17.713585   21.651753   22.741720 H          1 MOL1         0.1008
      19    H13     16.381197   20.687051   22.075974 H          1 MOL1         0.1008
      20    H14     17.052967   20.286136   23.668807 H          1 MOL1         0.1008
@<TRIPOS>BOND
    1     1     2    1
    2     1     3    1
    3     1     4    1
    4     1     5    1
    5     5     6    1
    6     5     7    1
    7     5     8    1
    8     8     9    1
    9     8    10    1
   10     8    11    1
   11    11    12    1
   12    11    13    1
   13    11    14    1
   14    14    15    1
   15    14    16    1
   16    14    17    1
   17    17    18    1
   18    17    19    1
   19    17    20    1
@<TRIPOS>SUBSTRUCTURE
       1 MOL1            1 RESIDUE      1      MOL     
@<SCITEGIC>MOL_PROPERTY
VConf Rank
SciTegic.value.IntegerValue
657

@<SCITEGIC>MOL_PROPERTY
Conf_Id
SciTegic.value.IntegerValue
72

@<SCITEGIC>MOL_PROPERTY
Delta U+W
SciTegic.value.DoubleValue
0.000

@<SCITEGIC>MOL_PROPERTY
U+W
SciTegic.value.DoubleValue
-11.778

@<SCITEGIC>MOL_PROPERTY
Grad RMS
SciTegic.value.DoubleValue
0.000000

@<SCITEGIC>MOL_PROPERTY
U
SciTegic.value.DoubleValue
45.772

@<SCITEGIC>MOL_PROPERTY
W
SciTegic.value.DoubleValue
-57.550

@<SCITEGIC>MOL_PROPERTY
W(PB)
SciTegic.value.DoubleValue
-59.511

@<SCITEGIC>MOL_PROPERTY
W(SA)
SciTegic.value.DoubleValue
1.961

@<SCITEGIC>MOL_PROPERTY
Valence
SciTegic.value.DoubleValue
1.299

@<SCITEGIC>MOL_PROPERTY
Coulomb
SciTegic.value.DoubleValue
44.177

@<SCITEGIC>MOL_PROPERTY
VdW
SciTegic.value.DoubleValue
0.297

@<SCITEGIC>MOL_PROPERTY
VdW6
SciTegic.value.DoubleValue
-3.490

@<SCITEGIC>MOL_PROPERTY
VdW12
SciTegic.value.DoubleValue
3.786

@<SCITEGIC>MOL_PROPERTY
Bond
SciTegic.value.DoubleValue
0.096

@<SCITEGIC>MOL_PROPERTY
Angle
SciTegic.value.DoubleValue
0.381

@<SCITEGIC>MOL_PROPERTY
Pdih
SciTegic.value.DoubleValue
0.822

@<SCITEGIC>MOL_PROPERTY
Idih
SciTegic.value.DoubleValue
0.000

@<SCITEGIC>MOL_PROPERTY
Tether
SciTegic.value.DoubleValue
0.000

@<TRIPOS>MOLECULE
guest-s11_confgen4.mol2 : confsearch ligand conformer 658
          20          19           1
SMALL
USER_CHARGES
 
@<TRIPOS>ATOM
       1    N1      20.124093   16.312477   21.583238 N.4        1 MOL1        -0.5919
       2    H1      19.705781   16.006686   22.467457 H          1 MOL1         0.3682
       3    H2      19.365035   16.378867   20.897828 H          1 MOL1         0.3682
       4    H3      20.742200   15.556641   21.269810 H          1 MOL1         0.3682
       5    C1      20.869100   17.623707   21.732288 C.3        1 MOL1         0.0252
       6    H4      21.312492   17.871719   20.764101 H          1 MOL1         0.0971
       7    H5      21.678436   17.472271   22.451696 H          1 MOL1         0.0971
       8    C2      19.969348   18.781108   22.201478 C.3        1 MOL1        -0.1369
       9    H6      19.149107   18.919227   21.484582 H          1 MOL1         0.0997
      10    H7      19.516191   18.514089   23.164503 H          1 MOL1         0.0997
      11    C3      20.769558   20.098045   22.337377 C.3        1 MOL1        -0.1329
      12    H8      21.277471   20.307840   21.385667 H          1 MOL1         0.0997
      13    H9      21.561690   19.973989   23.088858 H          1 MOL1         0.0997
      14    C4      19.892213   21.318876   22.706846 C.3        1 MOL1        -0.1305
      15    H10     20.516561   22.222970   22.679594 H          1 MOL1         0.0997
      16    H11     19.113037   21.461123   21.944923 H          1 MOL1         0.0997
      17    C5      19.239189   21.206638   24.103446 C.3        1 MOL1        -0.2320
      18    H12     19.995297   21.035690   24.880680 H          1 MOL1         0.1008
      19    H13     18.705245   22.132618   24.353280 H          1 MOL1         0.1008
      20    H14     18.511984   20.386316   24.144284 H          1 MOL1         0.1008
@<TRIPOS>BOND
    1     1     2    1
    2     1     3    1
    3     1     4    1
    4     1     5    1
    5     5     6    1
    6     5     7    1
    7     5     8    1
    8     8     9    1
    9     8    10    1
   10     8    11    1
   11    11    12    1
   12    11    13    1
   13    11    14    1
   14    14    15    1
   15    14    16    1
   16    14    17    1
   17    17    18    1
   18    17    19    1
   19    17    20    1
@<TRIPOS>SUBSTRUCTURE
       1 MOL1            1 RESIDUE      1      MOL     
@<SCITEGIC>MOL_PROPERTY
VConf Rank
SciTegic.value.IntegerValue
658

@<SCITEGIC>MOL_PROPERTY
Conf_Id
SciTegic.value.IntegerValue
42

@<SCITEGIC>MOL_PROPERTY
Delta U+W
SciTegic.value.DoubleValue
0.508

@<SCITEGIC>MOL_PROPERTY
U+W
SciTegic.value.DoubleValue
-11.270

@<SCITEGIC>MOL_PROPERTY
Grad RMS
SciTegic.value.DoubleValue
0.000000

@<SCITEGIC>MOL_PROPERTY
U
SciTegic.value.DoubleValue
46.486

@<SCITEGIC>MOL_PROPERTY
W
SciTegic.value.DoubleValue
-57.756

@<SCITEGIC>MOL_PROPERTY
W(PB)
SciTegic.value.DoubleValue
-59.705

@<SCITEGIC>MOL_PROPERTY
W(SA)
SciTegic.value.DoubleValue
1.949

@<SCITEGIC>MOL_PROPERTY
Valence
SciTegic.value.DoubleValue
1.806

@<SCITEGIC>MOL_PROPERTY
Coulomb
SciTegic.value.DoubleValue
44.248

@<SCITEGIC>MOL_PROPERTY
VdW
SciTegic.value.DoubleValue
0.433

@<SCITEGIC>MOL_PROPERTY
VdW6
SciTegic.value.DoubleValue
-4.089

@<SCITEGIC>MOL_PROPERTY
VdW12
SciTegic.value.DoubleValue
4.522

@<SCITEGIC>MOL_PROPERTY
Bond
SciTegic.value.DoubleValue
0.131

@<SCITEGIC>MOL_PROPERTY
Angle
SciTegic.value.DoubleValue
0.628

@<SCITEGIC>MOL_PROPERTY
Pdih
SciTegic.value.DoubleValue
1.047

@<SCITEGIC>MOL_PROPERTY
Idih
SciTegic.value.DoubleValue
0.000

@<SCITEGIC>MOL_PROPERTY
Tether
SciTegic.value.DoubleValue
0.000

@<TRIPOS>MOLECULE
guest-s11_confgen4.mol2 : confsearch ligand conformer 659
          20          19           1
SMALL
USER_CHARGES
 
@<TRIPOS>ATOM
       1    N1      20.825571   16.819544   20.591693 N.4        1 MOL1        -0.5919
       2    H1      21.152761   17.395609   19.809734 H          1 MOL1         0.3682
       3    H2      21.650188   16.566108   21.144966 H          1 MOL1         0.3682
       4    H3      20.459994   15.950632   20.188051 H          1 MOL1         0.3682
       5    C1      19.782093   17.535758   21.425223 C.3        1 MOL1         0.0252
       6    H4      19.458283   16.855809   22.217892 H          1 MOL1         0.0971
       7    H5      18.923383   17.746864   20.782149 H          1 MOL1         0.0971
       8    C2      20.298499   18.846088   22.046215 C.3        1 MOL1        -0.1369
       9    H6      21.170275   18.624766   22.674777 H          1 MOL1         0.0997
      10    H7      20.637294   19.519503   21.247753 H          1 MOL1         0.0997
      11    C3      19.201516   19.543326   22.885037 C.3        1 MOL1        -0.1329
      12    H8      18.895110   18.887675   23.711973 H          1 MOL1         0.0997
      13    H9      18.309842   19.687301   22.258992 H          1 MOL1         0.0997
      14    C4      19.634983   20.918648   23.448299 C.3        1 MOL1        -0.1305
      15    H10     19.919633   21.585750   22.622570 H          1 MOL1         0.0997
      16    H11     18.769848   21.387920   23.937444 H          1 MOL1         0.0997
      17    C5      20.794344   20.828271   24.466752 C.3        1 MOL1        -0.2320
      18    H12     21.719992   20.476702   23.994524 H          1 MOL1         0.1008
      19    H13     21.000905   21.814577   24.902051 H          1 MOL1         0.1008
      20    H14     20.545828   20.144563   25.288821 H          1 MOL1         0.1008
@<TRIPOS>BOND
    1     1     2    1
    2     1     3    1
    3     1     4    1
    4     1     5    1
    5     5     6    1
    6     5     7    1
    7     5     8    1
    8     8     9    1
    9     8    10    1
   10     8    11    1
   11    11    12    1
   12    11    13    1
   13    11    14    1
   14    14    15    1
   15    14    16    1
   16    14    17    1
   17    17    18    1
   18    17    19    1
   19    17    20    1
@<TRIPOS>SUBSTRUCTURE
       1 MOL1            1 RESIDUE      1      MOL     
@<SCITEGIC>MOL_PROPERTY
VConf Rank
SciTegic.value.IntegerValue
659

@<SCITEGIC>MOL_PROPERTY
Conf_Id
SciTegic.value.IntegerValue
41

@<SCITEGIC>MOL_PROPERTY
Delta U+W
SciTegic.value.DoubleValue
0.515

@<SCITEGIC>MOL_PROPERTY
U+W
SciTegic.value.DoubleValue
-11.263

@<SCITEGIC>MOL_PROPERTY
Grad RMS
SciTegic.value.DoubleValue
0.000000

@<SCITEGIC>MOL_PROPERTY
U
SciTegic.value.DoubleValue
46.486

@<SCITEGIC>MOL_PROPERTY
W
SciTegic.value.DoubleValue
-57.749

@<SCITEGIC>MOL_PROPERTY
W(PB)
SciTegic.value.DoubleValue
-59.685

@<SCITEGIC>MOL_PROPERTY
W(SA)
SciTegic.value.DoubleValue
1.936

@<SCITEGIC>MOL_PROPERTY
Valence
SciTegic.value.DoubleValue
1.806

@<SCITEGIC>MOL_PROPERTY
Coulomb
SciTegic.value.DoubleValue
44.248

@<SCITEGIC>MOL_PROPERTY
VdW
SciTegic.value.DoubleValue
0.433

@<SCITEGIC>MOL_PROPERTY
VdW6
SciTegic.value.DoubleValue
-4.089

@<SCITEGIC>MOL_PROPERTY
VdW12
SciTegic.value.DoubleValue
4.522

@<SCITEGIC>MOL_PROPERTY
Bond
SciTegic.value.DoubleValue
0.131

@<SCITEGIC>MOL_PROPERTY
Angle
SciTegic.value.DoubleValue
0.628

@<SCITEGIC>MOL_PROPERTY
Pdih
SciTegic.value.DoubleValue
1.047

@<SCITEGIC>MOL_PROPERTY
Idih
SciTegic.value.DoubleValue
0.000

@<SCITEGIC>MOL_PROPERTY
Tether
SciTegic.value.DoubleValue
0.000

@<TRIPOS>MOLECULE
guest-s11_confgen4.mol2 : confsearch ligand conformer 660
          20          19           1
SMALL
USER_CHARGES
 
@<TRIPOS>ATOM
       1    N1      20.769695   21.219542   24.162322 N.4        1 MOL1        -0.5919
       2    H1      21.432986   21.744388   24.742049 H          1 MOL1         0.3682
       3    H2      20.750264   21.674894   23.245143 H          1 MOL1         0.3682
       4    H3      19.843352   21.344707   24.582342 H          1 MOL1         0.3682
       5    C1      21.149618   19.754954   24.058392 C.3        1 MOL1         0.0252
       6    H4      21.192053   19.351780   25.073897 H          1 MOL1         0.0971
       7    H5      22.152142   19.693524   23.626403 H          1 MOL1         0.0971
       8    C2      20.169844   18.913523   23.217021 C.3        1 MOL1        -0.1369
       9    H6      20.467084   17.861022   23.303616 H          1 MOL1         0.0997
      10    H7      19.160818   18.991219   23.643072 H          1 MOL1         0.0997
      11    C3      20.150758   19.331262   21.724960 C.3        1 MOL1        -0.1329
      12    H8      21.158753   19.229242   21.299512 H          1 MOL1         0.0997
      13    H9      19.888494   20.394585   21.646418 H          1 MOL1         0.0997
      14    C4      19.145002   18.521381   20.870835 C.3        1 MOL1        -0.1305
      15    H10     18.132723   18.631279   21.284451 H          1 MOL1         0.0997
      16    H11     19.112220   18.954111   19.861078 H          1 MOL1         0.0997
      17    C5      19.500351   17.021221   20.756781 C.3        1 MOL1        -0.2320
      18    H12     19.424654   16.513048   21.725956 H          1 MOL1         0.1008
      19    H13     18.813378   16.515516   20.065927 H          1 MOL1         0.1008
      20    H14     20.520341   16.884549   20.374752 H          1 MOL1         0.1008
@<TRIPOS>BOND
    1     1     2    1
    2     1     3    1
    3     1     4    1
    4     1     5    1
    5     5     6    1
    6     5     7    1
    7     5     8    1
    8     8     9    1
    9     8    10    1
   10     8    11    1
   11    11    12    1
   12    11    13    1
   13    11    14    1
   14    14    15    1
   15    14    16    1
   16    14    17    1
   17    17    18    1
   18    17    19    1
   19    17    20    1
@<TRIPOS>SUBSTRUCTURE
       1 MOL1            1 RESIDUE      1      MOL     
@<SCITEGIC>MOL_PROPERTY
VConf Rank
SciTegic.value.IntegerValue
660

@<SCITEGIC>MOL_PROPERTY
Conf_Id
SciTegic.value.IntegerValue
33

@<SCITEGIC>MOL_PROPERTY
Delta U+W
SciTegic.value.DoubleValue
0.703

@<SCITEGIC>MOL_PROPERTY
U+W
SciTegic.value.DoubleValue
-11.075

@<SCITEGIC>MOL_PROPERTY
Grad RMS
SciTegic.value.DoubleValue
0.000000

@<SCITEGIC>MOL_PROPERTY
U
SciTegic.value.DoubleValue
47.080

@<SCITEGIC>MOL_PROPERTY
W
SciTegic.value.DoubleValue
-58.154

@<SCITEGIC>MOL_PROPERTY
W(PB)
SciTegic.value.DoubleValue
-60.053

@<SCITEGIC>MOL_PROPERTY
W(SA)
SciTegic.value.DoubleValue
1.899

@<SCITEGIC>MOL_PROPERTY
Valence
SciTegic.value.DoubleValue
1.943

@<SCITEGIC>MOL_PROPERTY
Coulomb
SciTegic.value.DoubleValue
44.572

@<SCITEGIC>MOL_PROPERTY
VdW
SciTegic.value.DoubleValue
0.565

@<SCITEGIC>MOL_PROPERTY
VdW6
SciTegic.value.DoubleValue
-4.575

@<SCITEGIC>MOL_PROPERTY
VdW12
SciTegic.value.DoubleValue
5.139

@<SCITEGIC>MOL_PROPERTY
Bond
SciTegic.value.DoubleValue
0.158

@<SCITEGIC>MOL_PROPERTY
Angle
SciTegic.value.DoubleValue
0.700

@<SCITEGIC>MOL_PROPERTY
Pdih
SciTegic.value.DoubleValue
1.085

@<SCITEGIC>MOL_PROPERTY
Idih
SciTegic.value.DoubleValue
0.000

@<SCITEGIC>MOL_PROPERTY
Tether
SciTegic.value.DoubleValue
0.000

@<TRIPOS>MOLECULE
guest-s11_confgen4.mol2 : confsearch ligand conformer 661
          20          19           1
SMALL
USER_CHARGES
 
@<TRIPOS>ATOM
       1    N1      20.808075   21.525591   23.669447 N.4        1 MOL1        -0.5919
       2    H1      20.564165   22.461596   24.009892 H          1 MOL1         0.3682
       3    H2      21.574101   21.184761   24.258710 H          1 MOL1         0.3682
       4    H3      21.182329   21.640822   22.723088 H          1 MOL1         0.3682
       5    C1      19.615518   20.588955   23.695561 C.3        1 MOL1         0.0252
       6    H4      18.830300   21.020624   23.069033 H          1 MOL1         0.0971
       7    H5      19.247113   20.551733   24.724392 H          1 MOL1         0.0971
       8    C2      19.933685   19.158842   23.216596 C.3        1 MOL1        -0.1369
       9    H6      20.734513   18.734470   23.836495 H          1 MOL1         0.0997
      10    H7      19.044013   18.539592   23.385774 H          1 MOL1         0.0997
      11    C3      20.333364   19.103739   21.720489 C.3        1 MOL1        -0.1329
      12    H8      21.201807   19.753618   21.549981 H          1 MOL1         0.0997
      13    H9      19.518360   19.509035   21.104883 H          1 MOL1         0.0997
      14    C4      20.692129   17.679679   21.230267 C.3        1 MOL1        -0.1305
      15    H10     21.070819   17.746823   20.200691 H          1 MOL1         0.0997
      16    H11     21.516335   17.275040   21.834268 H          1 MOL1         0.0997
      17    C5      19.497451   16.698963   21.256863 C.3        1 MOL1        -0.2320
      18    H12     18.647965   17.095219   20.685584 H          1 MOL1         0.1008
      19    H13     19.780919   15.736590   20.811405 H          1 MOL1         0.1008
      20    H14     19.160491   16.500041   22.281635 H          1 MOL1         0.1008
@<TRIPOS>BOND
    1     1     2    1
    2     1     3    1
    3     1     4    1
    4     1     5    1
    5     5     6    1
    6     5     7    1
    7     5     8    1
    8     8     9    1
    9     8    10    1
   10     8    11    1
   11    11    12    1
   12    11    13    1
   13    11    14    1
   14    14    15    1
   15    14    16    1
   16    14    17    1
   17    17    18    1
   18    17    19    1
   19    17    20    1
@<TRIPOS>SUBSTRUCTURE
       1 MOL1            1 RESIDUE      1      MOL     
@<SCITEGIC>MOL_PROPERTY
VConf Rank
SciTegic.value.IntegerValue
661

@<SCITEGIC>MOL_PROPERTY
Conf_Id
SciTegic.value.IntegerValue
24

@<SCITEGIC>MOL_PROPERTY
Delta U+W
SciTegic.value.DoubleValue
0.847

@<SCITEGIC>MOL_PROPERTY
U+W
SciTegic.value.DoubleValue
-10.931

@<SCITEGIC>MOL_PROPERTY
Grad RMS
SciTegic.value.DoubleValue
0.000000

@<SCITEGIC>MOL_PROPERTY
U
SciTegic.value.DoubleValue
47.080

@<SCITEGIC>MOL_PROPERTY
W
SciTegic.value.DoubleValue
-58.011

@<SCITEGIC>MOL_PROPERTY
W(PB)
SciTegic.value.DoubleValue
-59.914

@<SCITEGIC>MOL_PROPERTY
W(SA)
SciTegic.value.DoubleValue
1.903

@<SCITEGIC>MOL_PROPERTY
Valence
SciTegic.value.DoubleValue
1.943

@<SCITEGIC>MOL_PROPERTY
Coulomb
SciTegic.value.DoubleValue
44.572

@<SCITEGIC>MOL_PROPERTY
VdW
SciTegic.value.DoubleValue
0.565

@<SCITEGIC>MOL_PROPERTY
VdW6
SciTegic.value.DoubleValue
-4.575

@<SCITEGIC>MOL_PROPERTY
VdW12
SciTegic.value.DoubleValue
5.140

@<SCITEGIC>MOL_PROPERTY
Bond
SciTegic.value.DoubleValue
0.158

@<SCITEGIC>MOL_PROPERTY
Angle
SciTegic.value.DoubleValue
0.700

@<SCITEGIC>MOL_PROPERTY
Pdih
SciTegic.value.DoubleValue
1.085

@<SCITEGIC>MOL_PROPERTY
Idih
SciTegic.value.DoubleValue
0.000

@<SCITEGIC>MOL_PROPERTY
Tether
SciTegic.value.DoubleValue
0.000

@<TRIPOS>MOLECULE
guest-s11_confgen4.mol2 : confsearch ligand conformer 662
          20          19           1
SMALL
USER_CHARGES
 
@<TRIPOS>ATOM
       1    N1      21.511088   20.661770   24.369343 N.4        1 MOL1        -0.5919
       2    H1      21.601012   20.453390   25.369333 H          1 MOL1         0.3682
       3    H2      22.407882   20.423776   23.934209 H          1 MOL1         0.3682
       4    H3      21.396142   21.676795   24.286743 H          1 MOL1         0.3682
       5    C1      20.357582   19.908217   23.738542 C.3        1 MOL1         0.0252
       6    H4      19.442224   20.186630   24.267676 H          1 MOL1         0.0971
       7    H5      20.531347   18.839722   23.890560 H          1 MOL1         0.0971
       8    C2      20.195106   20.198723   22.234603 C.3        1 MOL1        -0.1369
       9    H6      20.062782   21.279149   22.089929 H          1 MOL1         0.0997
      10    H7      21.116749   19.928105   21.703759 H          1 MOL1         0.0997
      11    C3      18.986326   19.459320   21.608401 C.3        1 MOL1        -0.1329
      12    H8      18.922623   19.719554   20.542810 H          1 MOL1         0.0997
      13    H9      18.061463   19.835948   22.066956 H          1 MOL1         0.0997
      14    C4      19.021610   17.916160   21.752055 C.3        1 MOL1        -0.1305
      15    H10     18.978790   17.632521   22.812476 H          1 MOL1         0.0997
      16    H11     18.113715   17.500838   21.292581 H          1 MOL1         0.0997
      17    C5      20.257088   17.265376   21.089421 C.3        1 MOL1        -0.2320
      18    H12     20.187324   16.170967   21.137433 H          1 MOL1         0.1008
      19    H13     20.334324   17.550534   20.032210 H          1 MOL1         0.1008
      20    H14     21.186104   17.558795   21.593872 H          1 MOL1         0.1008
@<TRIPOS>BOND
    1     1     2    1
    2     1     3    1
    3     1     4    1
    4     1     5    1
    5     5     6    1
    6     5     7    1
    7     5     8    1
    8     8     9    1
    9     8    10    1
   10     8    11    1
   11    11    12    1
   12    11    13    1
   13    11    14    1
   14    14    15    1
   15    14    16    1
   16    14    17    1
   17    17    18    1
   18    17    19    1
   19    17    20    1
@<TRIPOS>SUBSTRUCTURE
       1 MOL1            1 RESIDUE      1      MOL     
@<SCITEGIC>MOL_PROPERTY
VConf Rank
SciTegic.value.IntegerValue
662

@<SCITEGIC>MOL_PROPERTY
Conf_Id
SciTegic.value.IntegerValue
64

@<SCITEGIC>MOL_PROPERTY
Delta U+W
SciTegic.value.DoubleValue
0.707

@<SCITEGIC>MOL_PROPERTY
U+W
SciTegic.value.DoubleValue
-11.070

@<SCITEGIC>MOL_PROPERTY
Grad RMS
SciTegic.value.DoubleValue
0.000000

@<SCITEGIC>MOL_PROPERTY
U
SciTegic.value.DoubleValue
47.077

@<SCITEGIC>MOL_PROPERTY
W
SciTegic.value.DoubleValue
-58.148

@<SCITEGIC>MOL_PROPERTY
W(PB)
SciTegic.value.DoubleValue
-60.054

@<SCITEGIC>MOL_PROPERTY
W(SA)
SciTegic.value.DoubleValue
1.906

@<SCITEGIC>MOL_PROPERTY
Valence
SciTegic.value.DoubleValue
2.039

@<SCITEGIC>MOL_PROPERTY
Coulomb
SciTegic.value.DoubleValue
44.655

@<SCITEGIC>MOL_PROPERTY
VdW
SciTegic.value.DoubleValue
0.383

@<SCITEGIC>MOL_PROPERTY
VdW6
SciTegic.value.DoubleValue
-4.912

@<SCITEGIC>MOL_PROPERTY
VdW12
SciTegic.value.DoubleValue
5.295

@<SCITEGIC>MOL_PROPERTY
Bond
SciTegic.value.DoubleValue
0.159

@<SCITEGIC>MOL_PROPERTY
Angle
SciTegic.value.DoubleValue
0.856

@<SCITEGIC>MOL_PROPERTY
Pdih
SciTegic.value.DoubleValue
1.024

@<SCITEGIC>MOL_PROPERTY
Idih
SciTegic.value.DoubleValue
0.000

@<SCITEGIC>MOL_PROPERTY
Tether
SciTegic.value.DoubleValue
0.000

@<TRIPOS>MOLECULE
guest-s11_confgen4.mol2 : confsearch ligand conformer 663
          20          19           1
SMALL
USER_CHARGES
 
@<TRIPOS>ATOM
       1    N1      21.921223   20.902788   21.397672 N.4        1 MOL1        -0.5919
       2    H1      22.267479   21.603979   22.060051 H          1 MOL1         0.3682
       3    H2      22.655647   20.195218   21.296725 H          1 MOL1         0.3682
       4    H3      21.831923   21.370561   20.489541 H          1 MOL1         0.3682
       5    C1      20.608395   20.296157   21.850228 C.3        1 MOL1         0.0252
       6    H4      20.286106   19.584448   21.085646 H          1 MOL1         0.0971
       7    H5      19.867500   21.098105   21.907948 H          1 MOL1         0.0971
       8    C2      20.708319   19.584396   23.212590 C.3        1 MOL1        -0.1369
       9    H6      21.458419   18.785105   23.158366 H          1 MOL1         0.0997
      10    H7      21.072356   20.297330   23.964230 H          1 MOL1         0.0997
      11    C3      19.351791   19.006676   23.688058 C.3        1 MOL1        -0.1329
      12    H8      18.650776   19.835820   23.857147 H          1 MOL1         0.0997
      13    H9      19.492452   18.526091   24.666074 H          1 MOL1         0.0997
      14    C4      18.698981   17.992485   22.714160 C.3        1 MOL1        -0.1305
      15    H10     17.740372   17.664949   23.140391 H          1 MOL1         0.0997
      16    H11     18.452970   18.483941   21.762990 H          1 MOL1         0.0997
      17    C5      19.575026   16.747894   22.444811 C.3        1 MOL1        -0.2320
      18    H12     19.852257   16.249599   23.382798 H          1 MOL1         0.1008
      19    H13     19.031366   16.021481   21.827022 H          1 MOL1         0.1008
      20    H14     20.495859   17.011610   21.909876 H          1 MOL1         0.1008
@<TRIPOS>BOND
    1     1     2    1
    2     1     3    1
    3     1     4    1
    4     1     5    1
    5     5     6    1
    6     5     7    1
    7     5     8    1
    8     8     9    1
    9     8    10    1
   10     8    11    1
   11    11    12    1
   12    11    13    1
   13    11    14    1
   14    14    15    1
   15    14    16    1
   16    14    17    1
   17    17    18    1
   18    17    19    1
   19    17    20    1
@<TRIPOS>SUBSTRUCTURE
       1 MOL1            1 RESIDUE      1      MOL     
@<SCITEGIC>MOL_PROPERTY
VConf Rank
SciTegic.value.IntegerValue
663

@<SCITEGIC>MOL_PROPERTY
Conf_Id
SciTegic.value.IntegerValue
22

@<SCITEGIC>MOL_PROPERTY
Delta U+W
SciTegic.value.DoubleValue
0.731

@<SCITEGIC>MOL_PROPERTY
U+W
SciTegic.value.DoubleValue
-11.047

@<SCITEGIC>MOL_PROPERTY
Grad RMS
SciTegic.value.DoubleValue
0.000000

@<SCITEGIC>MOL_PROPERTY
U
SciTegic.value.DoubleValue
47.078

@<SCITEGIC>MOL_PROPERTY
W
SciTegic.value.DoubleValue
-58.125

@<SCITEGIC>MOL_PROPERTY
W(PB)
SciTegic.value.DoubleValue
-60.031

@<SCITEGIC>MOL_PROPERTY
W(SA)
SciTegic.value.DoubleValue
1.906

@<SCITEGIC>MOL_PROPERTY
Valence
SciTegic.value.DoubleValue
2.039

@<SCITEGIC>MOL_PROPERTY
Coulomb
SciTegic.value.DoubleValue
44.655

@<SCITEGIC>MOL_PROPERTY
VdW
SciTegic.value.DoubleValue
0.383

@<SCITEGIC>MOL_PROPERTY
VdW6
SciTegic.value.DoubleValue
-4.913

@<SCITEGIC>MOL_PROPERTY
VdW12
SciTegic.value.DoubleValue
5.296

@<SCITEGIC>MOL_PROPERTY
Bond
SciTegic.value.DoubleValue
0.159

@<SCITEGIC>MOL_PROPERTY
Angle
SciTegic.value.DoubleValue
0.856

@<SCITEGIC>MOL_PROPERTY
Pdih
SciTegic.value.DoubleValue
1.024

@<SCITEGIC>MOL_PROPERTY
Idih
SciTegic.value.DoubleValue
0.000

@<SCITEGIC>MOL_PROPERTY
Tether
SciTegic.value.DoubleValue
0.000

@<TRIPOS>MOLECULE
guest-s11_confgen4.mol2 : confsearch ligand conformer 664
          20          19           1
SMALL
USER_CHARGES
 
@<TRIPOS>ATOM
       1    N1      18.159070   20.320465   20.992597 N.4        1 MOL1        -0.5919
       2    H1      17.899444   21.135675   21.556833 H          1 MOL1         0.3682
       3    H2      18.485917   20.672613   20.087349 H          1 MOL1         0.3682
       4    H3      17.296403   19.795905   20.813333 H          1 MOL1         0.3682
       5    C1      19.205591   19.466277   21.679450 C.3        1 MOL1         0.0252
       6    H4      19.413748   18.605444   21.038331 H          1 MOL1         0.0971
       7    H5      18.776195   19.105907   22.617011 H          1 MOL1         0.0971
       8    C2      20.512035   20.226998   21.967855 C.3        1 MOL1        -0.1369
       9    H6      20.867486   20.684439   21.034942 H          1 MOL1         0.0997
      10    H7      20.308054   21.054268   22.660532 H          1 MOL1         0.0997
      11    C3      21.644269   19.336688   22.539963 C.3        1 MOL1        -0.1329
      12    H8      22.545874   19.959953   22.618702 H          1 MOL1         0.0997
      13    H9      21.896265   18.539470   21.827018 H          1 MOL1         0.0997
      14    C4      21.356247   18.732429   23.938929 C.3        1 MOL1        -0.1305
      15    H10     22.315849   18.580121   24.452806 H          1 MOL1         0.0997
      16    H11     20.794640   19.448301   24.555261 H          1 MOL1         0.0997
      17    C5      20.622748   17.371221   23.895022 C.3        1 MOL1        -0.2320
      18    H12     19.614247   17.455547   23.477064 H          1 MOL1         0.1008
      19    H13     21.181094   16.642295   23.293423 H          1 MOL1         0.1008
      20    H14     20.523432   16.958594   24.907375 H          1 MOL1         0.1008
@<TRIPOS>BOND
    1     1     2    1
    2     1     3    1
    3     1     4    1
    4     1     5    1
    5     5     6    1
    6     5     7    1
    7     5     8    1
    8     8     9    1
    9     8    10    1
   10     8    11    1
   11    11    12    1
   12    11    13    1
   13    11    14    1
   14    14    15    1
   15    14    16    1
   16    14    17    1
   17    17    18    1
   18    17    19    1
   19    17    20    1
@<TRIPOS>SUBSTRUCTURE
       1 MOL1            1 RESIDUE      1      MOL     
@<SCITEGIC>MOL_PROPERTY
VConf Rank
SciTegic.value.IntegerValue
664

@<SCITEGIC>MOL_PROPERTY
Conf_Id
SciTegic.value.IntegerValue
61

@<SCITEGIC>MOL_PROPERTY
Delta U+W
SciTegic.value.DoubleValue
2.669

@<SCITEGIC>MOL_PROPERTY
U+W
SciTegic.value.DoubleValue
-9.108

@<SCITEGIC>MOL_PROPERTY
Grad RMS
SciTegic.value.DoubleValue
0.000000

@<SCITEGIC>MOL_PROPERTY
U
SciTegic.value.DoubleValue
48.916

@<SCITEGIC>MOL_PROPERTY
W
SciTegic.value.DoubleValue
-58.025

@<SCITEGIC>MOL_PROPERTY
W(PB)
SciTegic.value.DoubleValue
-59.935

@<SCITEGIC>MOL_PROPERTY
W(SA)
SciTegic.value.DoubleValue
1.911

@<SCITEGIC>MOL_PROPERTY
Valence
SciTegic.value.DoubleValue
3.785

@<SCITEGIC>MOL_PROPERTY
Coulomb
SciTegic.value.DoubleValue
44.716

@<SCITEGIC>MOL_PROPERTY
VdW
SciTegic.value.DoubleValue
0.415

@<SCITEGIC>MOL_PROPERTY
VdW6
SciTegic.value.DoubleValue
-4.836

@<SCITEGIC>MOL_PROPERTY
VdW12
SciTegic.value.DoubleValue
5.251

@<SCITEGIC>MOL_PROPERTY
Bond
SciTegic.value.DoubleValue
0.175

@<SCITEGIC>MOL_PROPERTY
Angle
SciTegic.value.DoubleValue
1.195

@<SCITEGIC>MOL_PROPERTY
Pdih
SciTegic.value.DoubleValue
2.415

@<SCITEGIC>MOL_PROPERTY
Idih
SciTegic.value.DoubleValue
0.000

@<SCITEGIC>MOL_PROPERTY
Tether
SciTegic.value.DoubleValue
0.000

@<TRIPOS>MOLECULE
guest-s11_confgen4.mol2 : confsearch ligand conformer 665
          20          19           1
SMALL
USER_CHARGES
 
@<TRIPOS>ATOM
       1    N1      21.890825   17.854022   21.552925 N.4        1 MOL1        -0.5919
       2    H1      22.263403   17.407033   20.708515 H          1 MOL1         0.3682
       3    H2      22.528844   17.618006   22.319429 H          1 MOL1         0.3682
       4    H3      20.993480   17.407300   21.758439 H          1 MOL1         0.3682
       5    C1      21.750925   19.354293   21.379179 C.3        1 MOL1         0.0252
       6    H4      21.108576   19.546963   20.515696 H          1 MOL1         0.0971
       7    H5      22.747597   19.742349   21.151987 H          1 MOL1         0.0971
       8    C2      21.197826   20.089533   22.618121 C.3        1 MOL1        -0.1369
       9    H6      21.664380   19.694034   23.530109 H          1 MOL1         0.0997
      10    H7      21.512144   21.139551   22.550760 H          1 MOL1         0.0997
      11    C3      19.652958   20.064168   22.746612 C.3        1 MOL1        -0.1329
      12    H8      19.203682   20.516350   21.851543 H          1 MOL1         0.0997
      13    H9      19.369630   20.709661   23.589550 H          1 MOL1         0.0997
      14    C4      19.051016   18.657186   22.971065 C.3        1 MOL1        -0.1305
      15    H10     19.192298   18.040309   22.074766 H          1 MOL1         0.0997
      16    H11     19.571102   18.155845   23.799382 H          1 MOL1         0.0997
      17    C5      17.541351   18.728389   23.285487 C.3        1 MOL1        -0.2320
      18    H12     17.127870   17.722155   23.432382 H          1 MOL1         0.1008
      19    H13     17.354501   19.305143   24.200727 H          1 MOL1         0.1008
      20    H14     16.988889   19.202739   22.463874 H          1 MOL1         0.1008
@<TRIPOS>BOND
    1     1     2    1
    2     1     3    1
    3     1     4    1
    4     1     5    1
    5     5     6    1
    6     5     7    1
    7     5     8    1
    8     8     9    1
    9     8    10    1
   10     8    11    1
   11    11    12    1
   12    11    13    1
   13    11    14    1
   14    14    15    1
   15    14    16    1
   16    14    17    1
   17    17    18    1
   18    17    19    1
   19    17    20    1
@<TRIPOS>SUBSTRUCTURE
       1 MOL1            1 RESIDUE      1      MOL     
@<SCITEGIC>MOL_PROPERTY
VConf Rank
SciTegic.value.IntegerValue
665

@<SCITEGIC>MOL_PROPERTY
Conf_Id
SciTegic.value.IntegerValue
69

@<SCITEGIC>MOL_PROPERTY
Delta U+W
SciTegic.value.DoubleValue
2.811

@<SCITEGIC>MOL_PROPERTY
U+W
SciTegic.value.DoubleValue
-8.967

@<SCITEGIC>MOL_PROPERTY
Grad RMS
SciTegic.value.DoubleValue
0.000000

@<SCITEGIC>MOL_PROPERTY
U
SciTegic.value.DoubleValue
49.216

@<SCITEGIC>MOL_PROPERTY
W
SciTegic.value.DoubleValue
-58.183

@<SCITEGIC>MOL_PROPERTY
W(PB)
SciTegic.value.DoubleValue
-60.064

@<SCITEGIC>MOL_PROPERTY
W(SA)
SciTegic.value.DoubleValue
1.881

@<SCITEGIC>MOL_PROPERTY
Valence
SciTegic.value.DoubleValue
2.929

@<SCITEGIC>MOL_PROPERTY
Coulomb
SciTegic.value.DoubleValue
46.006

@<SCITEGIC>MOL_PROPERTY
VdW
SciTegic.value.DoubleValue
0.281

@<SCITEGIC>MOL_PROPERTY
VdW6
SciTegic.value.DoubleValue
-4.909

@<SCITEGIC>MOL_PROPERTY
VdW12
SciTegic.value.DoubleValue
5.190

@<SCITEGIC>MOL_PROPERTY
Bond
SciTegic.value.DoubleValue
0.156

@<SCITEGIC>MOL_PROPERTY
Angle
SciTegic.value.DoubleValue
0.974

@<SCITEGIC>MOL_PROPERTY
Pdih
SciTegic.value.DoubleValue
1.799

@<SCITEGIC>MOL_PROPERTY
Idih
SciTegic.value.DoubleValue
0.000

@<SCITEGIC>MOL_PROPERTY
Tether
SciTegic.value.DoubleValue
0.000

@<TRIPOS>MOLECULE
guest-s11_confgen4.mol2 : confsearch ligand conformer 666
          20          19           1
SMALL
USER_CHARGES
 
@<TRIPOS>ATOM
       1    N1      22.166946   20.117071   22.329228 N.4        1 MOL1        -0.5919
       2    H1      21.381749   20.601888   22.771322 H          1 MOL1         0.3682
       3    H2      22.735730   19.714487   23.080704 H          1 MOL1         0.3682
       4    H3      22.742862   20.831517   21.871484 H          1 MOL1         0.3682
       5    C1      21.700201   19.058575   21.348257 C.3        1 MOL1         0.0252
       6    H4      22.597752   18.605330   20.918689 H          1 MOL1         0.0971
       7    H5      21.150318   19.549584   20.540867 H          1 MOL1         0.0971
       8    C2      20.830212   17.949018   21.975537 C.3        1 MOL1        -0.1369
       9    H6      20.893200   17.067364   21.323932 H          1 MOL1         0.0997
      10    H7      21.252469   17.640040   22.940962 H          1 MOL1         0.0997
      11    C3      19.332178   18.316086   22.133420 C.3        1 MOL1        -0.1329
      12    H8      18.795418   17.420786   22.476648 H          1 MOL1         0.0997
      13    H9      18.910886   18.566112   21.149822 H          1 MOL1         0.0997
      14    C4      19.056035   19.473187   23.121943 C.3        1 MOL1        -0.1305
      15    H10     19.565871   19.279421   24.076126 H          1 MOL1         0.0997
      16    H11     19.456388   20.413177   22.721960 H          1 MOL1         0.0997
      17    C5      17.544477   19.652816   23.378740 C.3        1 MOL1        -0.2320
      18    H12     17.107241   18.746650   23.817956 H          1 MOL1         0.1008
      19    H13     17.365149   20.483167   24.074018 H          1 MOL1         0.1008
      20    H14     17.008991   19.873108   22.446004 H          1 MOL1         0.1008
@<TRIPOS>BOND
    1     1     2    1
    2     1     3    1
    3     1     4    1
    4     1     5    1
    5     5     6    1
    6     5     7    1
    7     5     8    1
    8     8     9    1
    9     8    10    1
   10     8    11    1
   11    11    12    1
   12    11    13    1
   13    11    14    1
   14    14    15    1
   15    14    16    1
   16    14    17    1
   17    17    18    1
   18    17    19    1
   19    17    20    1
@<TRIPOS>SUBSTRUCTURE
       1 MOL1            1 RESIDUE      1      MOL     
@<SCITEGIC>MOL_PROPERTY
VConf Rank
SciTegic.value.IntegerValue
666

@<SCITEGIC>MOL_PROPERTY
Conf_Id
SciTegic.value.IntegerValue
26

@<SCITEGIC>MOL_PROPERTY
Delta U+W
SciTegic.value.DoubleValue
2.809

@<SCITEGIC>MOL_PROPERTY
U+W
SciTegic.value.DoubleValue
-8.969

@<SCITEGIC>MOL_PROPERTY
Grad RMS
SciTegic.value.DoubleValue
0.000000

@<SCITEGIC>MOL_PROPERTY
U
SciTegic.value.DoubleValue
49.216

@<SCITEGIC>MOL_PROPERTY
W
SciTegic.value.DoubleValue
-58.185

@<SCITEGIC>MOL_PROPERTY
W(PB)
SciTegic.value.DoubleValue
-60.088

@<SCITEGIC>MOL_PROPERTY
W(SA)
SciTegic.value.DoubleValue
1.903

@<SCITEGIC>MOL_PROPERTY
Valence
SciTegic.value.DoubleValue
2.929

@<SCITEGIC>MOL_PROPERTY
Coulomb
SciTegic.value.DoubleValue
46.006

@<SCITEGIC>MOL_PROPERTY
VdW
SciTegic.value.DoubleValue
0.281

@<SCITEGIC>MOL_PROPERTY
VdW6
SciTegic.value.DoubleValue
-4.909

@<SCITEGIC>MOL_PROPERTY
VdW12
SciTegic.value.DoubleValue
5.190

@<SCITEGIC>MOL_PROPERTY
Bond
SciTegic.value.DoubleValue
0.156

@<SCITEGIC>MOL_PROPERTY
Angle
SciTegic.value.DoubleValue
0.974

@<SCITEGIC>MOL_PROPERTY
Pdih
SciTegic.value.DoubleValue
1.799

@<SCITEGIC>MOL_PROPERTY
Idih
SciTegic.value.DoubleValue
0.000

@<SCITEGIC>MOL_PROPERTY
Tether
SciTegic.value.DoubleValue
0.000

@<TRIPOS>MOLECULE
guest-s11_confgen4.mol2 : confsearch ligand conformer 667
          20          19           1
SMALL
USER_CHARGES
 
@<TRIPOS>ATOM
       1    N1      20.628773   20.094036   24.644894 N.4        1 MOL1        -0.5919
       2    H1      21.233754   19.277594   24.516993 H          1 MOL1         0.3682
       3    H2      21.236102   20.918720   24.677852 H          1 MOL1         0.3682
       4    H3      20.195543   20.005310   25.569961 H          1 MOL1         0.3682
       5    C1      19.591331   20.201512   23.544365 C.3        1 MOL1         0.0252
       6    H4      18.965315   21.071476   23.760642 H          1 MOL1         0.0971
       7    H5      18.959202   19.310613   23.584912 H          1 MOL1         0.0971
       8    C2      20.197259   20.345139   22.133509 C.3        1 MOL1        -0.1369
       9    H6      19.383322   20.493184   21.412315 H          1 MOL1         0.0997
      10    H7      20.802400   21.260493   22.093920 H          1 MOL1         0.0997
      11    C3      21.068060   19.138175   21.695399 C.3        1 MOL1        -0.1329
      12    H8      21.968988   19.093568   22.321933 H          1 MOL1         0.0997
      13    H9      21.426849   19.314183   20.671929 H          1 MOL1         0.0997
      14    C4      20.350587   17.765090   21.749267 C.3        1 MOL1        -0.1305
      15    H10     21.061672   16.985598   21.441695 H          1 MOL1         0.0997
      16    H11     20.067625   17.524001   22.782856 H          1 MOL1         0.0997
      17    C5      19.104006   17.688670   20.838751 C.3        1 MOL1        -0.2320
      18    H12     19.356931   17.941996   19.801053 H          1 MOL1         0.1008
      19    H13     18.685687   16.673846   20.843902 H          1 MOL1         0.1008
      20    H14     18.315467   18.372189   21.177293 H          1 MOL1         0.1008
@<TRIPOS>BOND
    1     1     2    1
    2     1     3    1
    3     1     4    1
    4     1     5    1
    5     5     6    1
    6     5     7    1
    7     5     8    1
    8     8     9    1
    9     8    10    1
   10     8    11    1
   11    11    12    1
   12    11    13    1
   13    11    14    1
   14    14    15    1
   15    14    16    1
   16    14    17    1
   17    17    18    1
   18    17    19    1
   19    17    20    1
@<TRIPOS>SUBSTRUCTURE
       1 MOL1            1 RESIDUE      1      MOL     
@<SCITEGIC>MOL_PROPERTY
VConf Rank
SciTegic.value.IntegerValue
667

@<SCITEGIC>MOL_PROPERTY
Conf_Id
SciTegic.value.IntegerValue
2

@<SCITEGIC>MOL_PROPERTY
Delta U+W
SciTegic.value.DoubleValue
0.994

@<SCITEGIC>MOL_PROPERTY
U+W
SciTegic.value.DoubleValue
-10.784

@<SCITEGIC>MOL_PROPERTY
Grad RMS
SciTegic.value.DoubleValue
0.000000

@<SCITEGIC>MOL_PROPERTY
U
SciTegic.value.DoubleValue
47.562

@<SCITEGIC>MOL_PROPERTY
W
SciTegic.value.DoubleValue
-58.346

@<SCITEGIC>MOL_PROPERTY
W(PB)
SciTegic.value.DoubleValue
-60.221

@<SCITEGIC>MOL_PROPERTY
W(SA)
SciTegic.value.DoubleValue
1.875

@<SCITEGIC>MOL_PROPERTY
Valence
SciTegic.value.DoubleValue
2.149

@<SCITEGIC>MOL_PROPERTY
Coulomb
SciTegic.value.DoubleValue
45.034

@<SCITEGIC>MOL_PROPERTY
VdW
SciTegic.value.DoubleValue
0.378

@<SCITEGIC>MOL_PROPERTY
VdW6
SciTegic.value.DoubleValue
-5.599

@<SCITEGIC>MOL_PROPERTY
VdW12
SciTegic.value.DoubleValue
5.977

@<SCITEGIC>MOL_PROPERTY
Bond
SciTegic.value.DoubleValue
0.185

@<SCITEGIC>MOL_PROPERTY
Angle
SciTegic.value.DoubleValue
0.935

@<SCITEGIC>MOL_PROPERTY
Pdih
SciTegic.value.DoubleValue
1.028

@<SCITEGIC>MOL_PROPERTY
Idih
SciTegic.value.DoubleValue
0.000

@<SCITEGIC>MOL_PROPERTY
Tether
SciTegic.value.DoubleValue
0.000

@<TRIPOS>MOLECULE
guest-s11_confgen4.mol2 : confsearch ligand conformer 668
          20          19           1
SMALL
USER_CHARGES
 
@<TRIPOS>ATOM
       1    N1      21.238133   21.043216   23.398378 N.4        1 MOL1        -0.5919
       2    H1      21.463980   21.022208   24.397673 H          1 MOL1         0.3682
       3    H2      21.964228   20.508557   22.912718 H          1 MOL1         0.3682
       4    H3      21.327222   22.017868   23.092721 H          1 MOL1         0.3682
       5    C1      19.853954   20.489717   23.121461 C.3        1 MOL1         0.0252
       6    H4      19.663785   20.571099   22.048080 H          1 MOL1         0.0971
       7    H5      19.131425   21.123529   23.642750 H          1 MOL1         0.0971
       8    C2      19.670097   19.026460   23.572418 C.3        1 MOL1        -0.1369
       9    H6      19.829916   18.961962   24.656823 H          1 MOL1         0.0997
      10    H7      18.625555   18.733579   23.406026 H          1 MOL1         0.0997
      11    C3      20.612538   18.023010   22.856956 C.3        1 MOL1        -0.1329
      12    H8      20.387417   17.009225   23.215787 H          1 MOL1         0.0997
      13    H9      21.650022   18.220680   23.158221 H          1 MOL1         0.0997
      14    C4      20.527099   18.040868   21.309242 C.3        1 MOL1        -0.1305
      15    H10     20.842077   19.019346   20.922116 H          1 MOL1         0.0997
      16    H11     21.246918   17.312694   20.909902 H          1 MOL1         0.0997
      17    C5      19.120327   17.697490   20.768944 C.3        1 MOL1        -0.2320
      18    H12     18.384282   18.461862   21.047470 H          1 MOL1         0.1008
      19    H13     19.133730   17.636067   19.673072 H          1 MOL1         0.1008
      20    H14     18.774508   16.729836   21.154968 H          1 MOL1         0.1008
@<TRIPOS>BOND
    1     1     2    1
    2     1     3    1
    3     1     4    1
    4     1     5    1
    5     5     6    1
    6     5     7    1
    7     5     8    1
    8     8     9    1
    9     8    10    1
   10     8    11    1
   11    11    12    1
   12    11    13    1
   13    11    14    1
   14    14    15    1
   15    14    16    1
   16    14    17    1
   17    17    18    1
   18    17    19    1
   19    17    20    1
@<TRIPOS>SUBSTRUCTURE
       1 MOL1            1 RESIDUE      1      MOL     
@<SCITEGIC>MOL_PROPERTY
VConf Rank
SciTegic.value.IntegerValue
668

@<SCITEGIC>MOL_PROPERTY
Conf_Id
SciTegic.value.IntegerValue
1

@<SCITEGIC>MOL_PROPERTY
Delta U+W
SciTegic.value.DoubleValue
1.032

@<SCITEGIC>MOL_PROPERTY
U+W
SciTegic.value.DoubleValue
-10.746

@<SCITEGIC>MOL_PROPERTY
Grad RMS
SciTegic.value.DoubleValue
0.000000

@<SCITEGIC>MOL_PROPERTY
U
SciTegic.value.DoubleValue
47.562

@<SCITEGIC>MOL_PROPERTY
W
SciTegic.value.DoubleValue
-58.308

@<SCITEGIC>MOL_PROPERTY
W(PB)
SciTegic.value.DoubleValue
-60.184

@<SCITEGIC>MOL_PROPERTY
W(SA)
SciTegic.value.DoubleValue
1.877

@<SCITEGIC>MOL_PROPERTY
Valence
SciTegic.value.DoubleValue
2.149

@<SCITEGIC>MOL_PROPERTY
Coulomb
SciTegic.value.DoubleValue
45.035

@<SCITEGIC>MOL_PROPERTY
VdW
SciTegic.value.DoubleValue
0.378

@<SCITEGIC>MOL_PROPERTY
VdW6
SciTegic.value.DoubleValue
-5.599

@<SCITEGIC>MOL_PROPERTY
VdW12
SciTegic.value.DoubleValue
5.978

@<SCITEGIC>MOL_PROPERTY
Bond
SciTegic.value.DoubleValue
0.185

@<SCITEGIC>MOL_PROPERTY
Angle
SciTegic.value.DoubleValue
0.935

@<SCITEGIC>MOL_PROPERTY
Pdih
SciTegic.value.DoubleValue
1.028

@<SCITEGIC>MOL_PROPERTY
Idih
SciTegic.value.DoubleValue
0.000

@<SCITEGIC>MOL_PROPERTY
Tether
SciTegic.value.DoubleValue
0.000

@<TRIPOS>MOLECULE
guest-s11_confgen4.mol2 : confsearch ligand conformer 669
          20          19           1
SMALL
USER_CHARGES
 
@<TRIPOS>ATOM
       1    N1      18.676909   17.587051   23.310341 N.4        1 MOL1        -0.5919
       2    H1      18.658594   17.394301   24.316623 H          1 MOL1         0.3682
       3    H2      18.199476   18.481189   23.164536 H          1 MOL1         0.3682
       4    H3      18.105662   16.865497   22.858256 H          1 MOL1         0.3682
       5    C1      20.091936   17.608272   22.765359 C.3        1 MOL1         0.0252
       6    H4      20.035520   17.786593   21.690399 H          1 MOL1         0.0971
       7    H5      20.517905   16.613047   22.918985 H          1 MOL1         0.0971
       8    C2      21.003198   18.657621   23.437061 C.3        1 MOL1        -0.1369
       9    H6      21.024902   18.449476   24.515033 H          1 MOL1         0.0997
      10    H7      22.034268   18.522803   23.084447 H          1 MOL1         0.0997
      11    C3      20.567078   20.131608   23.219149 C.3        1 MOL1        -0.1329
      12    H8      20.989842   20.731852   24.036707 H          1 MOL1         0.0997
      13    H9      19.478388   20.231883   23.316215 H          1 MOL1         0.0997
      14    C4      21.040680   20.766340   21.886163 C.3        1 MOL1        -0.1305
      15    H10     20.753971   21.827347   21.889051 H          1 MOL1         0.0997
      16    H11     22.138458   20.749937   21.837212 H          1 MOL1         0.0997
      17    C5      20.460007   20.105067   20.616727 C.3        1 MOL1        -0.2320
      18    H12     19.369346   20.001590   20.683891 H          1 MOL1         0.1008
      19    H13     20.684802   20.714545   19.731892 H          1 MOL1         0.1008
      20    H14     20.898347   19.114741   20.445944 H          1 MOL1         0.1008
@<TRIPOS>BOND
    1     1     2    1
    2     1     3    1
    3     1     4    1
    4     1     5    1
    5     5     6    1
    6     5     7    1
    7     5     8    1
    8     8     9    1
    9     8    10    1
   10     8    11    1
   11    11    12    1
   12    11    13    1
   13    11    14    1
   14    14    15    1
   15    14    16    1
   16    14    17    1
   17    17    18    1
   18    17    19    1
   19    17    20    1
@<TRIPOS>SUBSTRUCTURE
       1 MOL1            1 RESIDUE      1      MOL     
@<SCITEGIC>MOL_PROPERTY
VConf Rank
SciTegic.value.IntegerValue
669

@<SCITEGIC>MOL_PROPERTY
Conf_Id
SciTegic.value.IntegerValue
80

@<SCITEGIC>MOL_PROPERTY
Delta U+W
SciTegic.value.DoubleValue
2.920

@<SCITEGIC>MOL_PROPERTY
U+W
SciTegic.value.DoubleValue
-8.857

@<SCITEGIC>MOL_PROPERTY
Grad RMS
SciTegic.value.DoubleValue
0.000000

@<SCITEGIC>MOL_PROPERTY
U
SciTegic.value.DoubleValue
49.434

@<SCITEGIC>MOL_PROPERTY
W
SciTegic.value.DoubleValue
-58.292

@<SCITEGIC>MOL_PROPERTY
W(PB)
SciTegic.value.DoubleValue
-60.170

@<SCITEGIC>MOL_PROPERTY
W(SA)
SciTegic.value.DoubleValue
1.879

@<SCITEGIC>MOL_PROPERTY
Valence
SciTegic.value.DoubleValue
3.798

@<SCITEGIC>MOL_PROPERTY
Coulomb
SciTegic.value.DoubleValue
45.253

@<SCITEGIC>MOL_PROPERTY
VdW
SciTegic.value.DoubleValue
0.384

@<SCITEGIC>MOL_PROPERTY
VdW6
SciTegic.value.DoubleValue
-5.595

@<SCITEGIC>MOL_PROPERTY
VdW12
SciTegic.value.DoubleValue
5.979

@<SCITEGIC>MOL_PROPERTY
Bond
SciTegic.value.DoubleValue
0.198

@<SCITEGIC>MOL_PROPERTY
Angle
SciTegic.value.DoubleValue
1.368

@<SCITEGIC>MOL_PROPERTY
Pdih
SciTegic.value.DoubleValue
2.231

@<SCITEGIC>MOL_PROPERTY
Idih
SciTegic.value.DoubleValue
0.000

@<SCITEGIC>MOL_PROPERTY
Tether
SciTegic.value.DoubleValue
0.000

@<TRIPOS>MOLECULE
guest-s11_confgen4.mol2 : confsearch ligand conformer 670
          20          19           1
SMALL
USER_CHARGES
 
@<TRIPOS>ATOM
       1    N1      18.209127   18.414421   21.548670 N.4        1 MOL1        -0.5919
       2    H1      17.764663   17.586105   21.956633 H          1 MOL1         0.3682
       3    H2      17.522903   18.840129   20.916835 H          1 MOL1         0.3682
       4    H3      18.986450   18.086175   20.968403 H          1 MOL1         0.3682
       5    C1      18.673413   19.388422   22.614278 C.3        1 MOL1         0.0252
       6    H4      17.787770   19.724034   23.160650 H          1 MOL1         0.0971
       7    H5      19.105962   20.255116   22.112023 H          1 MOL1         0.0971
       8    C2      19.684926   18.785385   23.612234 C.3        1 MOL1        -0.1369
       9    H6      19.870346   19.504343   24.421146 H          1 MOL1         0.0997
      10    H7      19.215946   17.913433   24.087183 H          1 MOL1         0.0997
      11    C3      21.035890   18.348717   22.984109 C.3        1 MOL1        -0.1329
      12    H8      20.871319   17.844497   22.023173 H          1 MOL1         0.0997
      13    H9      21.481841   17.588528   23.640360 H          1 MOL1         0.0997
      14    C4      22.078787   19.483539   22.815027 C.3        1 MOL1        -0.1305
      15    H10     22.311937   19.921840   23.795494 H          1 MOL1         0.0997
      16    H11     23.015967   19.038594   22.452171 H          1 MOL1         0.0997
      17    C5      21.657754   20.603912   21.838593 C.3        1 MOL1        -0.2320
      18    H12     20.863082   21.227541   22.264781 H          1 MOL1         0.1008
      19    H13     22.508065   21.264894   21.626453 H          1 MOL1         0.1008
      20    H14     21.308382   20.190624   20.883663 H          1 MOL1         0.1008
@<TRIPOS>BOND
    1     1     2    1
    2     1     3    1
    3     1     4    1
    4     1     5    1
    5     5     6    1
    6     5     7    1
    7     5     8    1
    8     8     9    1
    9     8    10    1
   10     8    11    1
   11    11    12    1
   12    11    13    1
   13    11    14    1
   14    14    15    1
   15    14    16    1
   16    14    17    1
   17    17    18    1
   18    17    19    1
   19    17    20    1
@<TRIPOS>SUBSTRUCTURE
       1 MOL1            1 RESIDUE      1      MOL     
@<SCITEGIC>MOL_PROPERTY
VConf Rank
SciTegic.value.IntegerValue
670

@<SCITEGIC>MOL_PROPERTY
Conf_Id
SciTegic.value.IntegerValue
65

@<SCITEGIC>MOL_PROPERTY
Delta U+W
SciTegic.value.DoubleValue
2.949

@<SCITEGIC>MOL_PROPERTY
U+W
SciTegic.value.DoubleValue
-8.829

@<SCITEGIC>MOL_PROPERTY
Grad RMS
SciTegic.value.DoubleValue
0.000000

@<SCITEGIC>MOL_PROPERTY
U
SciTegic.value.DoubleValue
49.435

@<SCITEGIC>MOL_PROPERTY
W
SciTegic.value.DoubleValue
-58.263

@<SCITEGIC>MOL_PROPERTY
W(PB)
SciTegic.value.DoubleValue
-60.125

@<SCITEGIC>MOL_PROPERTY
W(SA)
SciTegic.value.DoubleValue
1.862

@<SCITEGIC>MOL_PROPERTY
Valence
SciTegic.value.DoubleValue
3.797

@<SCITEGIC>MOL_PROPERTY
Coulomb
SciTegic.value.DoubleValue
45.253

@<SCITEGIC>MOL_PROPERTY
VdW
SciTegic.value.DoubleValue
0.384

@<SCITEGIC>MOL_PROPERTY
VdW6
SciTegic.value.DoubleValue
-5.596

@<SCITEGIC>MOL_PROPERTY
VdW12
SciTegic.value.DoubleValue
5.980

@<SCITEGIC>MOL_PROPERTY
Bond
SciTegic.value.DoubleValue
0.198

@<SCITEGIC>MOL_PROPERTY
Angle
SciTegic.value.DoubleValue
1.369

@<SCITEGIC>MOL_PROPERTY
Pdih
SciTegic.value.DoubleValue
2.230

@<SCITEGIC>MOL_PROPERTY
Idih
SciTegic.value.DoubleValue
0.000

@<SCITEGIC>MOL_PROPERTY
Tether
SciTegic.value.DoubleValue
0.000

@<TRIPOS>MOLECULE
guest-s11_confgen4.mol2 : confsearch ligand conformer 671
          20          19           1
SMALL
USER_CHARGES
 
@<TRIPOS>ATOM
       1    N1      21.720099   18.484334   21.588959 N.4        1 MOL1        -0.5919
       2    H1      22.737455   18.599573   21.647172 H          1 MOL1         0.3682
       3    H2      21.396224   18.158753   22.504834 H          1 MOL1         0.3682
       4    H3      21.543528   17.730570   20.917344 H          1 MOL1         0.3682
       5    C1      21.029246   19.772007   21.183771 C.3        1 MOL1         0.0252
       6    H4      21.423781   20.051223   20.203005 H          1 MOL1         0.0971
       7    H5      21.303017   20.555775   21.895077 H          1 MOL1         0.0971
       8    C2      19.493813   19.658195   21.094882 C.3        1 MOL1        -0.1369
       9    H6      19.138904   20.451222   20.423348 H          1 MOL1         0.0997
      10    H7      19.218567   18.711936   20.610482 H          1 MOL1         0.0997
      11    C3      18.740383   19.808080   22.443859 C.3        1 MOL1        -0.1329
      12    H8      17.664383   19.761974   22.225630 H          1 MOL1         0.0997
      13    H9      18.912334   20.810679   22.859423 H          1 MOL1         0.0997
      14    C4      19.060264   18.728695   23.509282 C.3        1 MOL1        -0.1305
      15    H10     18.142184   18.510630   24.073050 H          1 MOL1         0.0997
      16    H11     19.341247   17.783183   23.026250 H          1 MOL1         0.0997
      17    C5      20.141365   19.175834   24.521756 C.3        1 MOL1        -0.2320
      18    H12     21.072854   19.481323   24.033288 H          1 MOL1         0.1008
      19    H13     19.785914   20.029096   25.114140 H          1 MOL1         0.1008
      20    H14     20.375863   18.363138   25.221554 H          1 MOL1         0.1008
@<TRIPOS>BOND
    1     1     2    1
    2     1     3    1
    3     1     4    1
    4     1     5    1
    5     5     6    1
    6     5     7    1
    7     5     8    1
    8     8     9    1
    9     8    10    1
   10     8    11    1
   11    11    12    1
   12    11    13    1
   13    11    14    1
   14    14    15    1
   15    14    16    1
   16    14    17    1
   17    17    18    1
   18    17    19    1
   19    17    20    1
@<TRIPOS>SUBSTRUCTURE
       1 MOL1            1 RESIDUE      1      MOL     
@<SCITEGIC>MOL_PROPERTY
VConf Rank
SciTegic.value.IntegerValue
671

@<SCITEGIC>MOL_PROPERTY
Conf_Id
SciTegic.value.IntegerValue
77

@<SCITEGIC>MOL_PROPERTY
Delta U+W
SciTegic.value.DoubleValue
5.366

@<SCITEGIC>MOL_PROPERTY
U+W
SciTegic.value.DoubleValue
-6.412

@<SCITEGIC>MOL_PROPERTY
Grad RMS
SciTegic.value.DoubleValue
0.000000

@<SCITEGIC>MOL_PROPERTY
U
SciTegic.value.DoubleValue
51.542

@<SCITEGIC>MOL_PROPERTY
W
SciTegic.value.DoubleValue
-57.954

@<SCITEGIC>MOL_PROPERTY
W(PB)
SciTegic.value.DoubleValue
-59.811

@<SCITEGIC>MOL_PROPERTY
W(SA)
SciTegic.value.DoubleValue
1.857

@<SCITEGIC>MOL_PROPERTY
Valence
SciTegic.value.DoubleValue
5.347

@<SCITEGIC>MOL_PROPERTY
Coulomb
SciTegic.value.DoubleValue
45.870

@<SCITEGIC>MOL_PROPERTY
VdW
SciTegic.value.DoubleValue
0.325

@<SCITEGIC>MOL_PROPERTY
VdW6
SciTegic.value.DoubleValue
-6.161

@<SCITEGIC>MOL_PROPERTY
VdW12
SciTegic.value.DoubleValue
6.486

@<SCITEGIC>MOL_PROPERTY
Bond
SciTegic.value.DoubleValue
0.201

@<SCITEGIC>MOL_PROPERTY
Angle
SciTegic.value.DoubleValue
1.484

@<SCITEGIC>MOL_PROPERTY
Pdih
SciTegic.value.DoubleValue
3.662

@<SCITEGIC>MOL_PROPERTY
Idih
SciTegic.value.DoubleValue
0.000

@<SCITEGIC>MOL_PROPERTY
Tether
SciTegic.value.DoubleValue
0.000

@<TRIPOS>MOLECULE
guest-s11_confgen4.mol2 : confsearch ligand conformer 672
          20          19           1
SMALL
USER_CHARGES
 
@<TRIPOS>ATOM
       1    N1      18.348858   18.364202   22.395958 N.4        1 MOL1        -0.5919
       2    H1      17.993712   17.983924   23.278945 H          1 MOL1         0.3682
       3    H2      18.565036   19.353015   22.554834 H          1 MOL1         0.3682
       4    H3      17.576895   18.323998   21.722060 H          1 MOL1         0.3682
       5    C1      19.565726   17.604019   21.905126 C.3        1 MOL1         0.0252
       6    H4      19.862097   18.006522   20.932831 H          1 MOL1         0.0971
       7    H5      19.256975   16.564904   21.762187 H          1 MOL1         0.0971
       8    C2      20.763338   17.644288   22.875957 C.3        1 MOL1        -0.1369
       9    H6      20.410802   17.508776   23.907056 H          1 MOL1         0.0997
      10    H7      21.396750   16.773546   22.660531 H          1 MOL1         0.0997
      11    C3      21.652834   18.912669   22.776608 C.3        1 MOL1        -0.1329
      12    H8      22.112228   18.970755   21.780091 H          1 MOL1         0.0997
      13    H9      22.489058   18.782749   23.477590 H          1 MOL1         0.0997
      14    C4      20.946497   20.250137   23.115414 C.3        1 MOL1        -0.1305
      15    H10     20.133904   20.084091   23.835403 H          1 MOL1         0.0997
      16    H11     21.665200   20.905463   23.627539 H          1 MOL1         0.0997
      17    C5      20.432363   20.999992   21.863533 C.3        1 MOL1        -0.2320
      18    H12     19.891922   21.910724   22.152794 H          1 MOL1         0.1008
      19    H13     21.271398   21.303342   21.223751 H          1 MOL1         0.1008
      20    H14     19.760280   20.386754   21.253749 H          1 MOL1         0.1008
@<TRIPOS>BOND
    1     1     2    1
    2     1     3    1
    3     1     4    1
    4     1     5    1
    5     5     6    1
    6     5     7    1
    7     5     8    1
    8     8     9    1
    9     8    10    1
   10     8    11    1
   11    11    12    1
   12    11    13    1
   13    11    14    1
   14    14    15    1
   15    14    16    1
   16    14    17    1
   17    17    18    1
   18    17    19    1
   19    17    20    1
@<TRIPOS>SUBSTRUCTURE
       1 MOL1            1 RESIDUE      1      MOL     
@<SCITEGIC>MOL_PROPERTY
VConf Rank
SciTegic.value.IntegerValue
672

@<SCITEGIC>MOL_PROPERTY
Conf_Id
SciTegic.value.IntegerValue
67

@<SCITEGIC>MOL_PROPERTY
Delta U+W
SciTegic.value.DoubleValue
5.353

@<SCITEGIC>MOL_PROPERTY
U+W
SciTegic.value.DoubleValue
-6.425

@<SCITEGIC>MOL_PROPERTY
Grad RMS
SciTegic.value.DoubleValue
0.000000

@<SCITEGIC>MOL_PROPERTY
U
SciTegic.value.DoubleValue
51.541

@<SCITEGIC>MOL_PROPERTY
W
SciTegic.value.DoubleValue
-57.966

@<SCITEGIC>MOL_PROPERTY
W(PB)
SciTegic.value.DoubleValue
-59.821

@<SCITEGIC>MOL_PROPERTY
W(SA)
SciTegic.value.DoubleValue
1.855

@<SCITEGIC>MOL_PROPERTY
Valence
SciTegic.value.DoubleValue
5.347

@<SCITEGIC>MOL_PROPERTY
Coulomb
SciTegic.value.DoubleValue
45.870

@<SCITEGIC>MOL_PROPERTY
VdW
SciTegic.value.DoubleValue
0.325

@<SCITEGIC>MOL_PROPERTY
VdW6
SciTegic.value.DoubleValue
-6.161

@<SCITEGIC>MOL_PROPERTY
VdW12
SciTegic.value.DoubleValue
6.486

@<SCITEGIC>MOL_PROPERTY
Bond
SciTegic.value.DoubleValue
0.201

@<SCITEGIC>MOL_PROPERTY
Angle
SciTegic.value.DoubleValue
1.485

@<SCITEGIC>MOL_PROPERTY
Pdih
SciTegic.value.DoubleValue
3.662

@<SCITEGIC>MOL_PROPERTY
Idih
SciTegic.value.DoubleValue
0.000

@<SCITEGIC>MOL_PROPERTY
Tether
SciTegic.value.DoubleValue
0.000

@<TRIPOS>MOLECULE
guest-s11_confgen4.mol2 : confsearch ligand conformer 673
          20          19           1
SMALL
USER_CHARGES
 
@<TRIPOS>ATOM
       1    N1      20.626425   17.771369   19.588867 N.4        1 MOL1        -0.5919
       2    H1      20.651240   16.793550   19.894878 H          1 MOL1         0.3682
       3    H2      20.177499   17.782898   18.666949 H          1 MOL1         0.3682
       4    H3      21.597489   18.068274   19.450046 H          1 MOL1         0.3682
       5    C1      19.899260   18.657158   20.580379 C.3        1 MOL1         0.0252
       6    H4      18.867478   18.303231   20.655729 H          1 MOL1         0.0971
       7    H5      19.884862   19.673579   20.177642 H          1 MOL1         0.0971
       8    C2      20.548129   18.662371   21.976161 C.3        1 MOL1        -0.1369
       9    H6      20.574960   17.637540   22.369949 H          1 MOL1         0.0997
      10    H7      21.588848   19.003167   21.893524 H          1 MOL1         0.0997
      11    C3      19.777586   19.575967   22.955108 C.3        1 MOL1        -0.1329
      12    H8      18.735503   19.235318   23.031341 H          1 MOL1         0.0997
      13    H9      19.748245   20.599331   22.555537 H          1 MOL1         0.0997
      14    C4      20.420219   19.588969   24.360238 C.3        1 MOL1        -0.1305
      15    H10     20.449671   18.567354   24.764569 H          1 MOL1         0.0997
      16    H11     21.462230   19.931263   24.288859 H          1 MOL1         0.0997
      17    C5      19.647025   20.502906   25.334850 C.3        1 MOL1        -0.2320
      18    H12     18.609240   20.165209   25.453922 H          1 MOL1         0.1008
      19    H13     20.118063   20.498944   26.326389 H          1 MOL1         0.1008
      20    H14     19.629819   21.539788   24.974581 H          1 MOL1         0.1008
@<TRIPOS>BOND
    1     1     2    1
    2     1     3    1
    3     1     4    1
    4     1     5    1
    5     5     6    1
    6     5     7    1
    7     5     8    1
    8     8     9    1
    9     8    10    1
   10     8    11    1
   11    11    12    1
   12    11    13    1
   13    11    14    1
   14    14    15    1
   15    14    16    1
   16    14    17    1
   17    17    18    1
   18    17    19    1
   19    17    20    1
@<TRIPOS>SUBSTRUCTURE
       1 MOL1            1 RESIDUE      1      MOL     
@<SCITEGIC>MOL_PROPERTY
VConf Rank
SciTegic.value.IntegerValue
673

@<SCITEGIC>MOL_PROPERTY
Conf_Id
SciTegic.value.IntegerValue
72

@<SCITEGIC>MOL_PROPERTY
Delta U+W
SciTegic.value.DoubleValue
0.000

@<SCITEGIC>MOL_PROPERTY
U+W
SciTegic.value.DoubleValue
-11.778

@<SCITEGIC>MOL_PROPERTY
Grad RMS
SciTegic.value.DoubleValue
0.000000

@<SCITEGIC>MOL_PROPERTY
U
SciTegic.value.DoubleValue
45.772

@<SCITEGIC>MOL_PROPERTY
W
SciTegic.value.DoubleValue
-57.550

@<SCITEGIC>MOL_PROPERTY
W(PB)
SciTegic.value.DoubleValue
-59.511

@<SCITEGIC>MOL_PROPERTY
W(SA)
SciTegic.value.DoubleValue
1.961

@<SCITEGIC>MOL_PROPERTY
Valence
SciTegic.value.DoubleValue
1.299

@<SCITEGIC>MOL_PROPERTY
Coulomb
SciTegic.value.DoubleValue
44.177

@<SCITEGIC>MOL_PROPERTY
VdW
SciTegic.value.DoubleValue
0.297

@<SCITEGIC>MOL_PROPERTY
VdW6
SciTegic.value.DoubleValue
-3.490

@<SCITEGIC>MOL_PROPERTY
VdW12
SciTegic.value.DoubleValue
3.786

@<SCITEGIC>MOL_PROPERTY
Bond
SciTegic.value.DoubleValue
0.096

@<SCITEGIC>MOL_PROPERTY
Angle
SciTegic.value.DoubleValue
0.381

@<SCITEGIC>MOL_PROPERTY
Pdih
SciTegic.value.DoubleValue
0.822

@<SCITEGIC>MOL_PROPERTY
Idih
SciTegic.value.DoubleValue
0.000

@<SCITEGIC>MOL_PROPERTY
Tether
SciTegic.value.DoubleValue
0.000

@<TRIPOS>MOLECULE
guest-s11_confgen4.mol2 : confsearch ligand conformer 674
          20          19           1
SMALL
USER_CHARGES
 
@<TRIPOS>ATOM
       1    N1      17.795850   18.881802   20.578150 N.4        1 MOL1        -0.5919
       2    H1      17.417109   19.792476   20.856654 H          1 MOL1         0.3682
       3    H2      18.318604   19.026045   19.708503 H          1 MOL1         0.3682
       4    H3      16.994687   18.284635   20.347694 H          1 MOL1         0.3682
       5    C1      18.659338   18.271193   21.663562 C.3        1 MOL1         0.0252
       6    H4      19.001840   17.294029   21.312369 H          1 MOL1         0.0971
       7    H5      18.033365   18.118307   22.546902 H          1 MOL1         0.0971
       8    C2      19.872781   19.142889   22.033655 C.3        1 MOL1        -0.1369
       9    H6      20.490006   19.307084   21.140411 H          1 MOL1         0.0997
      10    H7      19.518260   20.126212   22.367505 H          1 MOL1         0.0997
      11    C3      20.725697   18.480953   23.141583 C.3        1 MOL1        -0.1329
      12    H8      21.006718   17.468424   22.819786 H          1 MOL1         0.0997
      13    H9      20.120982   18.358794   24.050969 H          1 MOL1         0.0997
      14    C4      22.016362   19.266081   23.479857 C.3        1 MOL1        -0.1305
      15    H10     22.610066   18.677879   24.193630 H          1 MOL1         0.0997
      16    H11     22.635721   19.369856   22.577914 H          1 MOL1         0.0997
      17    C5      21.745805   20.661272   24.087945 C.3        1 MOL1        -0.2320
      18    H12     21.104600   20.587787   24.975904 H          1 MOL1         0.1008
      19    H13     22.687190   21.136462   24.392808 H          1 MOL1         0.1008
      20    H14     21.259049   21.328718   23.366137 H          1 MOL1         0.1008
@<TRIPOS>BOND
    1     1     2    1
    2     1     3    1
    3     1     4    1
    4     1     5    1
    5     5     6    1
    6     5     7    1
    7     5     8    1
    8     8     9    1
    9     8    10    1
   10     8    11    1
   11    11    12    1
   12    11    13    1
   13    11    14    1
   14    14    15    1
   15    14    16    1
   16    14    17    1
   17    17    18    1
   18    17    19    1
   19    17    20    1
@<TRIPOS>SUBSTRUCTURE
       1 MOL1            1 RESIDUE      1      MOL     
@<SCITEGIC>MOL_PROPERTY
VConf Rank
SciTegic.value.IntegerValue
674

@<SCITEGIC>MOL_PROPERTY
Conf_Id
SciTegic.value.IntegerValue
42

@<SCITEGIC>MOL_PROPERTY
Delta U+W
SciTegic.value.DoubleValue
0.508

@<SCITEGIC>MOL_PROPERTY
U+W
SciTegic.value.DoubleValue
-11.270

@<SCITEGIC>MOL_PROPERTY
Grad RMS
SciTegic.value.DoubleValue
0.000000

@<SCITEGIC>MOL_PROPERTY
U
SciTegic.value.DoubleValue
46.486

@<SCITEGIC>MOL_PROPERTY
W
SciTegic.value.DoubleValue
-57.756

@<SCITEGIC>MOL_PROPERTY
W(PB)
SciTegic.value.DoubleValue
-59.705

@<SCITEGIC>MOL_PROPERTY
W(SA)
SciTegic.value.DoubleValue
1.949

@<SCITEGIC>MOL_PROPERTY
Valence
SciTegic.value.DoubleValue
1.806

@<SCITEGIC>MOL_PROPERTY
Coulomb
SciTegic.value.DoubleValue
44.248

@<SCITEGIC>MOL_PROPERTY
VdW
SciTegic.value.DoubleValue
0.433

@<SCITEGIC>MOL_PROPERTY
VdW6
SciTegic.value.DoubleValue
-4.089

@<SCITEGIC>MOL_PROPERTY
VdW12
SciTegic.value.DoubleValue
4.522

@<SCITEGIC>MOL_PROPERTY
Bond
SciTegic.value.DoubleValue
0.131

@<SCITEGIC>MOL_PROPERTY
Angle
SciTegic.value.DoubleValue
0.628

@<SCITEGIC>MOL_PROPERTY
Pdih
SciTegic.value.DoubleValue
1.047

@<SCITEGIC>MOL_PROPERTY
Idih
SciTegic.value.DoubleValue
0.000

@<SCITEGIC>MOL_PROPERTY
Tether
SciTegic.value.DoubleValue
0.000

@<TRIPOS>MOLECULE
guest-s11_confgen4.mol2 : confsearch ligand conformer 675
          20          19           1
SMALL
USER_CHARGES
 
@<TRIPOS>ATOM
       1    N1      17.759837   17.591049   21.419956 N.4        1 MOL1        -0.5919
       2    H1      17.102538   17.849629   22.162558 H          1 MOL1         0.3682
       3    H2      17.646104   18.275024   20.665252 H          1 MOL1         0.3682
       4    H3      17.449552   16.686258   21.050283 H          1 MOL1         0.3682
       5    C1      19.188404   17.533886   21.922460 C.3        1 MOL1         0.0252
       6    H4      19.826840   17.224700   21.090408 H          1 MOL1         0.0971
       7    H5      19.242157   16.766773   22.699726 H          1 MOL1         0.0971
       8    C2      19.686202   18.877221   22.485413 C.3        1 MOL1        -0.1369
       9    H6      19.611099   19.642794   21.702901 H          1 MOL1         0.0997
      10    H7      19.032948   19.191673   23.310151 H          1 MOL1         0.0997
      11    C3      21.145486   18.772023   22.987965 C.3        1 MOL1        -0.1329
      12    H8      21.806221   18.502303   22.152341 H          1 MOL1         0.0997
      13    H9      21.215392   17.950075   23.714090 H          1 MOL1         0.0997
      14    C4      21.662688   20.067527   23.659412 C.3        1 MOL1        -0.1305
      15    H10     21.018360   20.327910   24.510834 H          1 MOL1         0.0997
      16    H11     22.660383   19.873785   24.077749 H          1 MOL1         0.0997
      17    C5      21.753756   21.268288   22.690180 C.3        1 MOL1        -0.2320
      18    H12     20.762411   21.578194   22.337170 H          1 MOL1         0.1008
      19    H13     22.209824   22.132198   23.190795 H          1 MOL1         0.1008
      20    H14     22.370140   21.024103   21.815275 H          1 MOL1         0.1008
@<TRIPOS>BOND
    1     1     2    1
    2     1     3    1
    3     1     4    1
    4     1     5    1
    5     5     6    1
    6     5     7    1
    7     5     8    1
    8     8     9    1
    9     8    10    1
   10     8    11    1
   11    11    12    1
   12    11    13    1
   13    11    14    1
   14    14    15    1
   15    14    16    1
   16    14    17    1
   17    17    18    1
   18    17    19    1
   19    17    20    1
@<TRIPOS>SUBSTRUCTURE
       1 MOL1            1 RESIDUE      1      MOL     
@<SCITEGIC>MOL_PROPERTY
VConf Rank
SciTegic.value.IntegerValue
675

@<SCITEGIC>MOL_PROPERTY
Conf_Id
SciTegic.value.IntegerValue
41

@<SCITEGIC>MOL_PROPERTY
Delta U+W
SciTegic.value.DoubleValue
0.515

@<SCITEGIC>MOL_PROPERTY
U+W
SciTegic.value.DoubleValue
-11.263

@<SCITEGIC>MOL_PROPERTY
Grad RMS
SciTegic.value.DoubleValue
0.000000

@<SCITEGIC>MOL_PROPERTY
U
SciTegic.value.DoubleValue
46.486

@<SCITEGIC>MOL_PROPERTY
W
SciTegic.value.DoubleValue
-57.749

@<SCITEGIC>MOL_PROPERTY
W(PB)
SciTegic.value.DoubleValue
-59.685

@<SCITEGIC>MOL_PROPERTY
W(SA)
SciTegic.value.DoubleValue
1.936

@<SCITEGIC>MOL_PROPERTY
Valence
SciTegic.value.DoubleValue
1.806

@<SCITEGIC>MOL_PROPERTY
Coulomb
SciTegic.value.DoubleValue
44.248

@<SCITEGIC>MOL_PROPERTY
VdW
SciTegic.value.DoubleValue
0.433

@<SCITEGIC>MOL_PROPERTY
VdW6
SciTegic.value.DoubleValue
-4.089

@<SCITEGIC>MOL_PROPERTY
VdW12
SciTegic.value.DoubleValue
4.522

@<SCITEGIC>MOL_PROPERTY
Bond
SciTegic.value.DoubleValue
0.131

@<SCITEGIC>MOL_PROPERTY
Angle
SciTegic.value.DoubleValue
0.628

@<SCITEGIC>MOL_PROPERTY
Pdih
SciTegic.value.DoubleValue
1.047

@<SCITEGIC>MOL_PROPERTY
Idih
SciTegic.value.DoubleValue
0.000

@<SCITEGIC>MOL_PROPERTY
Tether
SciTegic.value.DoubleValue
0.000

@<TRIPOS>MOLECULE
guest-s11_confgen4.mol2 : confsearch ligand conformer 676
          20          19           1
SMALL
USER_CHARGES
 
@<TRIPOS>ATOM
       1    N1      22.770419   18.250544   22.469225 N.4        1 MOL1        -0.5919
       2    H1      23.760326   18.367259   22.709983 H          1 MOL1         0.3682
       3    H2      22.346304   17.691040   23.214893 H          1 MOL1         0.3682
       4    H3      22.736602   17.689047   21.612620 H          1 MOL1         0.3682
       5    C1      22.071965   19.585759   22.297393 C.3        1 MOL1         0.0252
       6    H4      22.605095   20.139865   21.520001 H          1 MOL1         0.0971
       7    H5      22.164725   20.141160   23.234606 H          1 MOL1         0.0971
       8    C2      20.584869   19.467602   21.909510 C.3        1 MOL1        -0.1369
       9    H6      20.209736   20.476205   21.695958 H          1 MOL1         0.0997
      10    H7      20.493760   18.894484   20.977350 H          1 MOL1         0.0997
      11    C3      19.726311   18.814109   23.021689 C.3        1 MOL1        -0.1329
      12    H8      19.804297   19.405504   23.944532 H          1 MOL1         0.0997
      13    H9      20.128333   17.819837   23.257081 H          1 MOL1         0.0997
      14    C4      18.235694   18.653315   22.635442 C.3        1 MOL1        -0.1305
      15    H10     18.151556   18.050739   21.720189 H          1 MOL1         0.0997
      16    H11     17.726843   18.083422   23.425526 H          1 MOL1         0.0997
      17    C5      17.500057   19.999080   22.441750 C.3        1 MOL1        -0.2320
      18    H12     17.891698   20.553488   21.580055 H          1 MOL1         0.1008
      19    H13     16.430048   19.829594   22.264828 H          1 MOL1         0.1008
      20    H14     17.595894   20.633699   23.332299 H          1 MOL1         0.1008
@<TRIPOS>BOND
    1     1     2    1
    2     1     3    1
    3     1     4    1
    4     1     5    1
    5     5     6    1
    6     5     7    1
    7     5     8    1
    8     8     9    1
    9     8    10    1
   10     8    11    1
   11    11    12    1
   12    11    13    1
   13    11    14    1
   14    14    15    1
   15    14    16    1
   16    14    17    1
   17    17    18    1
   18    17    19    1
   19    17    20    1
@<TRIPOS>SUBSTRUCTURE
       1 MOL1            1 RESIDUE      1      MOL     
@<SCITEGIC>MOL_PROPERTY
VConf Rank
SciTegic.value.IntegerValue
676

@<SCITEGIC>MOL_PROPERTY
Conf_Id
SciTegic.value.IntegerValue
33

@<SCITEGIC>MOL_PROPERTY
Delta U+W
SciTegic.value.DoubleValue
0.703

@<SCITEGIC>MOL_PROPERTY
U+W
SciTegic.value.DoubleValue
-11.075

@<SCITEGIC>MOL_PROPERTY
Grad RMS
SciTegic.value.DoubleValue
0.000000

@<SCITEGIC>MOL_PROPERTY
U
SciTegic.value.DoubleValue
47.080

@<SCITEGIC>MOL_PROPERTY
W
SciTegic.value.DoubleValue
-58.154

@<SCITEGIC>MOL_PROPERTY
W(PB)
SciTegic.value.DoubleValue
-60.053

@<SCITEGIC>MOL_PROPERTY
W(SA)
SciTegic.value.DoubleValue
1.899

@<SCITEGIC>MOL_PROPERTY
Valence
SciTegic.value.DoubleValue
1.943

@<SCITEGIC>MOL_PROPERTY
Coulomb
SciTegic.value.DoubleValue
44.572

@<SCITEGIC>MOL_PROPERTY
VdW
SciTegic.value.DoubleValue
0.565

@<SCITEGIC>MOL_PROPERTY
VdW6
SciTegic.value.DoubleValue
-4.575

@<SCITEGIC>MOL_PROPERTY
VdW12
SciTegic.value.DoubleValue
5.139

@<SCITEGIC>MOL_PROPERTY
Bond
SciTegic.value.DoubleValue
0.158

@<SCITEGIC>MOL_PROPERTY
Angle
SciTegic.value.DoubleValue
0.700

@<SCITEGIC>MOL_PROPERTY
Pdih
SciTegic.value.DoubleValue
1.085

@<SCITEGIC>MOL_PROPERTY
Idih
SciTegic.value.DoubleValue
0.000

@<SCITEGIC>MOL_PROPERTY
Tether
SciTegic.value.DoubleValue
0.000

@<TRIPOS>MOLECULE
guest-s11_confgen4.mol2 : confsearch ligand conformer 677
          20          19           1
SMALL
USER_CHARGES
 
@<TRIPOS>ATOM
       1    N1      20.312282   20.397476   20.012347 N.4        1 MOL1        -0.5919
       2    H1      20.538526   21.211868   19.431763 H          1 MOL1         0.3682
       3    H2      20.452590   19.567243   19.428207 H          1 MOL1         0.3682
       4    H3      19.312036   20.452096   20.225567 H          1 MOL1         0.3682
       5    C1      21.156947   20.351821   21.271163 C.3        1 MOL1         0.0252
       6    H4      20.978470   21.272042   21.833998 H          1 MOL1         0.0971
       7    H5      22.206439   20.339323   20.964553 H          1 MOL1         0.0971
       8    C2      20.874303   19.131436   22.169291 C.3        1 MOL1        -0.1369
       9    H6      21.037537   18.209116   21.596254 H          1 MOL1         0.0997
      10    H7      21.611725   19.131118   22.981583 H          1 MOL1         0.0997
      11    C3      19.442532   19.143102   22.761755 C.3        1 MOL1        -0.1329
      12    H8      18.709375   19.180224   21.945230 H          1 MOL1         0.0997
      13    H9      19.294170   20.057854   23.352251 H          1 MOL1         0.0997
      14    C4      19.127699   17.905920   23.637675 C.3        1 MOL1        -0.1305
      15    H10     18.066201   17.936122   23.920960 H          1 MOL1         0.0997
      16    H11     19.261472   16.988546   23.047424 H          1 MOL1         0.0997
      17    C5      19.982561   17.826682   24.923247 C.3        1 MOL1        -0.2320
      18    H12     19.890852   18.745918   25.516206 H          1 MOL1         0.1008
      19    H13     19.654078   16.988654   25.551543 H          1 MOL1         0.1008
      20    H14     21.043657   17.669176   24.694033 H          1 MOL1         0.1008
@<TRIPOS>BOND
    1     1     2    1
    2     1     3    1
    3     1     4    1
    4     1     5    1
    5     5     6    1
    6     5     7    1
    7     5     8    1
    8     8     9    1
    9     8    10    1
   10     8    11    1
   11    11    12    1
   12    11    13    1
   13    11    14    1
   14    14    15    1
   15    14    16    1
   16    14    17    1
   17    17    18    1
   18    17    19    1
   19    17    20    1
@<TRIPOS>SUBSTRUCTURE
       1 MOL1            1 RESIDUE      1      MOL     
@<SCITEGIC>MOL_PROPERTY
VConf Rank
SciTegic.value.IntegerValue
677

@<SCITEGIC>MOL_PROPERTY
Conf_Id
SciTegic.value.IntegerValue
24

@<SCITEGIC>MOL_PROPERTY
Delta U+W
SciTegic.value.DoubleValue
0.847

@<SCITEGIC>MOL_PROPERTY
U+W
SciTegic.value.DoubleValue
-10.931

@<SCITEGIC>MOL_PROPERTY
Grad RMS
SciTegic.value.DoubleValue
0.000000

@<SCITEGIC>MOL_PROPERTY
U
SciTegic.value.DoubleValue
47.080

@<SCITEGIC>MOL_PROPERTY
W
SciTegic.value.DoubleValue
-58.011

@<SCITEGIC>MOL_PROPERTY
W(PB)
SciTegic.value.DoubleValue
-59.914

@<SCITEGIC>MOL_PROPERTY
W(SA)
SciTegic.value.DoubleValue
1.903

@<SCITEGIC>MOL_PROPERTY
Valence
SciTegic.value.DoubleValue
1.943

@<SCITEGIC>MOL_PROPERTY
Coulomb
SciTegic.value.DoubleValue
44.572

@<SCITEGIC>MOL_PROPERTY
VdW
SciTegic.value.DoubleValue
0.565

@<SCITEGIC>MOL_PROPERTY
VdW6
SciTegic.value.DoubleValue
-4.575

@<SCITEGIC>MOL_PROPERTY
VdW12
SciTegic.value.DoubleValue
5.140

@<SCITEGIC>MOL_PROPERTY
Bond
SciTegic.value.DoubleValue
0.158

@<SCITEGIC>MOL_PROPERTY
Angle
SciTegic.value.DoubleValue
0.700

@<SCITEGIC>MOL_PROPERTY
Pdih
SciTegic.value.DoubleValue
1.085

@<SCITEGIC>MOL_PROPERTY
Idih
SciTegic.value.DoubleValue
0.000

@<SCITEGIC>MOL_PROPERTY
Tether
SciTegic.value.DoubleValue
0.000

@<TRIPOS>MOLECULE
guest-s11_confgen4.mol2 : confsearch ligand conformer 678
          20          19           1
SMALL
USER_CHARGES
 
@<TRIPOS>ATOM
       1    N1      17.737052   18.285979   21.518209 N.4        1 MOL1        -0.5919
       2    H1      17.574707   17.422589   20.989350 H          1 MOL1         0.3682
       3    H2      17.384315   18.124431   22.466734 H          1 MOL1         0.3682
       4    H3      17.145574   19.008526   21.095847 H          1 MOL1         0.3682
       5    C1      19.200223   18.680259   21.517340 C.3        1 MOL1         0.0252
       6    H4      19.515531   18.807176   20.478181 H          1 MOL1         0.0971
       7    H5      19.770630   17.854982   21.951551 H          1 MOL1         0.0971
       8    C2      19.478794   19.974463   22.304778 C.3        1 MOL1        -0.1369
       9    H6      18.869835   20.787049   21.886886 H          1 MOL1         0.0997
      10    H7      19.154248   19.851282   23.345908 H          1 MOL1         0.0997
      11    C3      20.969437   20.394008   22.260509 C.3        1 MOL1        -0.1329
      12    H8      21.094232   21.325971   22.828957 H          1 MOL1         0.0997
      13    H9      21.241541   20.634271   21.223337 H          1 MOL1         0.0997
      14    C4      21.960728   19.332779   22.803058 C.3        1 MOL1        -0.1305
      15    H10     21.926767   18.428256   22.180594 H          1 MOL1         0.0997
      16    H11     22.982376   19.726243   22.706612 H          1 MOL1         0.0997
      17    C5      21.709873   18.956362   24.281027 C.3        1 MOL1        -0.2320
      18    H12     22.491471   18.275590   24.642355 H          1 MOL1         0.1008
      19    H13     21.718228   19.847226   24.922328 H          1 MOL1         0.1008
      20    H14     20.745718   18.448847   24.409352 H          1 MOL1         0.1008
@<TRIPOS>BOND
    1     1     2    1
    2     1     3    1
    3     1     4    1
    4     1     5    1
    5     5     6    1
    6     5     7    1
    7     5     8    1
    8     8     9    1
    9     8    10    1
   10     8    11    1
   11    11    12    1
   12    11    13    1
   13    11    14    1
   14    14    15    1
   15    14    16    1
   16    14    17    1
   17    17    18    1
   18    17    19    1
   19    17    20    1
@<TRIPOS>SUBSTRUCTURE
       1 MOL1            1 RESIDUE      1      MOL     
@<SCITEGIC>MOL_PROPERTY
VConf Rank
SciTegic.value.IntegerValue
678

@<SCITEGIC>MOL_PROPERTY
Conf_Id
SciTegic.value.IntegerValue
64

@<SCITEGIC>MOL_PROPERTY
Delta U+W
SciTegic.value.DoubleValue
0.707

@<SCITEGIC>MOL_PROPERTY
U+W
SciTegic.value.DoubleValue
-11.070

@<SCITEGIC>MOL_PROPERTY
Grad RMS
SciTegic.value.DoubleValue
0.000000

@<SCITEGIC>MOL_PROPERTY
U
SciTegic.value.DoubleValue
47.077

@<SCITEGIC>MOL_PROPERTY
W
SciTegic.value.DoubleValue
-58.148

@<SCITEGIC>MOL_PROPERTY
W(PB)
SciTegic.value.DoubleValue
-60.054

@<SCITEGIC>MOL_PROPERTY
W(SA)
SciTegic.value.DoubleValue
1.906

@<SCITEGIC>MOL_PROPERTY
Valence
SciTegic.value.DoubleValue
2.039

@<SCITEGIC>MOL_PROPERTY
Coulomb
SciTegic.value.DoubleValue
44.655

@<SCITEGIC>MOL_PROPERTY
VdW
SciTegic.value.DoubleValue
0.383

@<SCITEGIC>MOL_PROPERTY
VdW6
SciTegic.value.DoubleValue
-4.912

@<SCITEGIC>MOL_PROPERTY
VdW12
SciTegic.value.DoubleValue
5.295

@<SCITEGIC>MOL_PROPERTY
Bond
SciTegic.value.DoubleValue
0.159

@<SCITEGIC>MOL_PROPERTY
Angle
SciTegic.value.DoubleValue
0.856

@<SCITEGIC>MOL_PROPERTY
Pdih
SciTegic.value.DoubleValue
1.024

@<SCITEGIC>MOL_PROPERTY
Idih
SciTegic.value.DoubleValue
0.000

@<SCITEGIC>MOL_PROPERTY
Tether
SciTegic.value.DoubleValue
0.000

@<TRIPOS>MOLECULE
guest-s11_confgen4.mol2 : confsearch ligand conformer 679
          20          19           1
SMALL
USER_CHARGES
 
@<TRIPOS>ATOM
       1    N1      21.609967   21.346406   21.907906 N.4        1 MOL1        -0.5919
       2    H1      21.196113   22.206037   22.282163 H          1 MOL1         0.3682
       3    H2      22.365666   21.074052   22.544274 H          1 MOL1         0.3682
       4    H3      22.047944   21.592309   21.013928 H          1 MOL1         0.3682
       5    C1      20.580618   20.246018   21.746929 C.3        1 MOL1         0.0252
       6    H4      21.083809   19.375706   21.317579 H          1 MOL1         0.0971
       7    H5      19.824666   20.591514   21.036615 H          1 MOL1         0.0971
       8    C2      19.903407   19.852032   23.073119 C.3        1 MOL1        -0.1369
       9    H6      20.662419   19.513724   23.789990 H          1 MOL1         0.0997
      10    H7      19.436864   20.741863   23.516175 H          1 MOL1         0.0997
      11    C3      18.821041   18.758585   22.891859 C.3        1 MOL1        -0.1329
      12    H8      18.007836   19.161162   22.272082 H          1 MOL1         0.0997
      13    H9      18.372969   18.535294   23.869937 H          1 MOL1         0.0997
      14    C4      19.328342   17.439953   22.253833 C.3        1 MOL1        -0.1305
      15    H10     18.479404   16.748797   22.156414 H          1 MOL1         0.0997
      16    H11     19.684140   17.625345   21.231183 H          1 MOL1         0.0997
      17    C5      20.441218   16.748754   23.074053 C.3        1 MOL1        -0.2320
      18    H12     20.117347   16.570787   24.107693 H          1 MOL1         0.1008
      19    H13     20.698499   15.777855   22.631258 H          1 MOL1         0.1008
      20    H14     21.356947   17.352439   23.099329 H          1 MOL1         0.1008
@<TRIPOS>BOND
    1     1     2    1
    2     1     3    1
    3     1     4    1
    4     1     5    1
    5     5     6    1
    6     5     7    1
    7     5     8    1
    8     8     9    1
    9     8    10    1
   10     8    11    1
   11    11    12    1
   12    11    13    1
   13    11    14    1
   14    14    15    1
   15    14    16    1
   16    14    17    1
   17    17    18    1
   18    17    19    1
   19    17    20    1
@<TRIPOS>SUBSTRUCTURE
       1 MOL1            1 RESIDUE      1      MOL     
@<SCITEGIC>MOL_PROPERTY
VConf Rank
SciTegic.value.IntegerValue
679

@<SCITEGIC>MOL_PROPERTY
Conf_Id
SciTegic.value.IntegerValue
22

@<SCITEGIC>MOL_PROPERTY
Delta U+W
SciTegic.value.DoubleValue
0.731

@<SCITEGIC>MOL_PROPERTY
U+W
SciTegic.value.DoubleValue
-11.047

@<SCITEGIC>MOL_PROPERTY
Grad RMS
SciTegic.value.DoubleValue
0.000000

@<SCITEGIC>MOL_PROPERTY
U
SciTegic.value.DoubleValue
47.078

@<SCITEGIC>MOL_PROPERTY
W
SciTegic.value.DoubleValue
-58.125

@<SCITEGIC>MOL_PROPERTY
W(PB)
SciTegic.value.DoubleValue
-60.031

@<SCITEGIC>MOL_PROPERTY
W(SA)
SciTegic.value.DoubleValue
1.906

@<SCITEGIC>MOL_PROPERTY
Valence
SciTegic.value.DoubleValue
2.039

@<SCITEGIC>MOL_PROPERTY
Coulomb
SciTegic.value.DoubleValue
44.655

@<SCITEGIC>MOL_PROPERTY
VdW
SciTegic.value.DoubleValue
0.383

@<SCITEGIC>MOL_PROPERTY
VdW6
SciTegic.value.DoubleValue
-4.913

@<SCITEGIC>MOL_PROPERTY
VdW12
SciTegic.value.DoubleValue
5.296

@<SCITEGIC>MOL_PROPERTY
Bond
SciTegic.value.DoubleValue
0.159

@<SCITEGIC>MOL_PROPERTY
Angle
SciTegic.value.DoubleValue
0.856

@<SCITEGIC>MOL_PROPERTY
Pdih
SciTegic.value.DoubleValue
1.024

@<SCITEGIC>MOL_PROPERTY
Idih
SciTegic.value.DoubleValue
0.000

@<SCITEGIC>MOL_PROPERTY
Tether
SciTegic.value.DoubleValue
0.000

@<TRIPOS>MOLECULE
guest-s11_confgen4.mol2 : confsearch ligand conformer 680
          20          19           1
SMALL
USER_CHARGES
 
@<TRIPOS>ATOM
       1    N1      22.101654   20.053756   24.261001 N.4        1 MOL1        -0.5919
       2    H1      22.593822   19.180223   24.473238 H          1 MOL1         0.3682
       3    H2      22.783690   20.686996   23.831880 H          1 MOL1         0.3682
       4    H3      21.833892   20.470022   25.159065 H          1 MOL1         0.3682
       5    C1      20.900551   19.824090   23.365895 C.3        1 MOL1         0.0252
       6    H4      20.410118   20.787734   23.203841 H          1 MOL1         0.0971
       7    H5      20.209742   19.167730   23.899975 H          1 MOL1         0.0971
       8    C2      21.268680   19.194314   22.010707 C.3        1 MOL1        -0.1369
       9    H6      22.052295   19.802768   21.539906 H          1 MOL1         0.0997
      10    H7      21.705443   18.200490   22.176048 H          1 MOL1         0.0997
      11    C3      20.077274   19.081629   21.025938 C.3        1 MOL1        -0.1329
      12    H8      20.472853   18.708004   20.071227 H          1 MOL1         0.0997
      13    H9      19.670018   20.078681   20.808269 H          1 MOL1         0.0997
      14    C4      18.942383   18.127282   21.480286 C.3        1 MOL1        -0.1305
      15    H10     18.449053   17.726842   20.583416 H          1 MOL1         0.0997
      16    H11     19.362356   17.258644   22.006433 H          1 MOL1         0.0997
      17    C5      17.860080   18.809438   22.349838 C.3        1 MOL1        -0.2320
      18    H12     18.256012   19.157236   23.309603 H          1 MOL1         0.1008
      19    H13     17.422299   19.671131   21.829418 H          1 MOL1         0.1008
      20    H14     17.046391   18.105604   22.567811 H          1 MOL1         0.1008
@<TRIPOS>BOND
    1     1     2    1
    2     1     3    1
    3     1     4    1
    4     1     5    1
    5     5     6    1
    6     5     7    1
    7     5     8    1
    8     8     9    1
    9     8    10    1
   10     8    11    1
   11    11    12    1
   12    11    13    1
   13    11    14    1
   14    14    15    1
   15    14    16    1
   16    14    17    1
   17    17    18    1
   18    17    19    1
   19    17    20    1
@<TRIPOS>SUBSTRUCTURE
       1 MOL1            1 RESIDUE      1      MOL     
@<SCITEGIC>MOL_PROPERTY
VConf Rank
SciTegic.value.IntegerValue
680

@<SCITEGIC>MOL_PROPERTY
Conf_Id
SciTegic.value.IntegerValue
61

@<SCITEGIC>MOL_PROPERTY
Delta U+W
SciTegic.value.DoubleValue
2.669

@<SCITEGIC>MOL_PROPERTY
U+W
SciTegic.value.DoubleValue
-9.108

@<SCITEGIC>MOL_PROPERTY
Grad RMS
SciTegic.value.DoubleValue
0.000000

@<SCITEGIC>MOL_PROPERTY
U
SciTegic.value.DoubleValue
48.916

@<SCITEGIC>MOL_PROPERTY
W
SciTegic.value.DoubleValue
-58.025

@<SCITEGIC>MOL_PROPERTY
W(PB)
SciTegic.value.DoubleValue
-59.935

@<SCITEGIC>MOL_PROPERTY
W(SA)
SciTegic.value.DoubleValue
1.911

@<SCITEGIC>MOL_PROPERTY
Valence
SciTegic.value.DoubleValue
3.785

@<SCITEGIC>MOL_PROPERTY
Coulomb
SciTegic.value.DoubleValue
44.716

@<SCITEGIC>MOL_PROPERTY
VdW
SciTegic.value.DoubleValue
0.415

@<SCITEGIC>MOL_PROPERTY
VdW6
SciTegic.value.DoubleValue
-4.836

@<SCITEGIC>MOL_PROPERTY
VdW12
SciTegic.value.DoubleValue
5.251

@<SCITEGIC>MOL_PROPERTY
Bond
SciTegic.value.DoubleValue
0.175

@<SCITEGIC>MOL_PROPERTY
Angle
SciTegic.value.DoubleValue
1.195

@<SCITEGIC>MOL_PROPERTY
Pdih
SciTegic.value.DoubleValue
2.415

@<SCITEGIC>MOL_PROPERTY
Idih
SciTegic.value.DoubleValue
0.000

@<SCITEGIC>MOL_PROPERTY
Tether
SciTegic.value.DoubleValue
0.000

@<TRIPOS>MOLECULE
guest-s11_confgen4.mol2 : confsearch ligand conformer 681
          20          19           1
SMALL
USER_CHARGES
 
@<TRIPOS>ATOM
       1    N1      22.399581   19.229881   22.097077 N.4        1 MOL1        -0.5919
       2    H1      23.192417   19.879492   22.064574 H          1 MOL1         0.3682
       3    H2      22.755238   18.313307   21.807762 H          1 MOL1         0.3682
       4    H3      21.732405   19.534021   21.383354 H          1 MOL1         0.3682
       5    C1      21.770873   19.179516   23.476484 C.3        1 MOL1         0.0252
       6    H4      21.463139   20.190541   23.756600 H          1 MOL1         0.0971
       7    H5      22.552769   18.859903   24.170779 H          1 MOL1         0.0971
       8    C2      20.571819   18.215243   23.594475 C.3        1 MOL1        -0.1369
       9    H6      20.789873   17.276994   23.067260 H          1 MOL1         0.0997
      10    H7      20.462854   17.946558   24.653628 H          1 MOL1         0.0997
      11    C3      19.220872   18.804350   23.113156 C.3        1 MOL1        -0.1329
      12    H8      18.989768   19.709975   23.690998 H          1 MOL1         0.0997
      13    H9      18.428738   18.080635   23.350305 H          1 MOL1         0.0997
      14    C4      19.164585   19.128557   21.601855 C.3        1 MOL1        -0.1305
      15    H10     19.844260   19.957973   21.369560 H          1 MOL1         0.0997
      16    H11     19.498821   18.258071   21.020062 H          1 MOL1         0.0997
      17    C5      17.739504   19.522056   21.157645 C.3        1 MOL1        -0.2320
      18    H12     17.718647   19.758165   20.085793 H          1 MOL1         0.1008
      19    H13     17.029529   18.703731   21.335133 H          1 MOL1         0.1008
      20    H14     17.385603   20.406061   21.704052 H          1 MOL1         0.1008
@<TRIPOS>BOND
    1     1     2    1
    2     1     3    1
    3     1     4    1
    4     1     5    1
    5     5     6    1
    6     5     7    1
    7     5     8    1
    8     8     9    1
    9     8    10    1
   10     8    11    1
   11    11    12    1
   12    11    13    1
   13    11    14    1
   14    14    15    1
   15    14    16    1
   16    14    17    1
   17    17    18    1
   18    17    19    1
   19    17    20    1
@<TRIPOS>SUBSTRUCTURE
       1 MOL1            1 RESIDUE      1      MOL     
@<SCITEGIC>MOL_PROPERTY
VConf Rank
SciTegic.value.IntegerValue
681

@<SCITEGIC>MOL_PROPERTY
Conf_Id
SciTegic.value.IntegerValue
69

@<SCITEGIC>MOL_PROPERTY
Delta U+W
SciTegic.value.DoubleValue
2.811

@<SCITEGIC>MOL_PROPERTY
U+W
SciTegic.value.DoubleValue
-8.967

@<SCITEGIC>MOL_PROPERTY
Grad RMS
SciTegic.value.DoubleValue
0.000000

@<SCITEGIC>MOL_PROPERTY
U
SciTegic.value.DoubleValue
49.216

@<SCITEGIC>MOL_PROPERTY
W
SciTegic.value.DoubleValue
-58.183

@<SCITEGIC>MOL_PROPERTY
W(PB)
SciTegic.value.DoubleValue
-60.064

@<SCITEGIC>MOL_PROPERTY
W(SA)
SciTegic.value.DoubleValue
1.881

@<SCITEGIC>MOL_PROPERTY
Valence
SciTegic.value.DoubleValue
2.929

@<SCITEGIC>MOL_PROPERTY
Coulomb
SciTegic.value.DoubleValue
46.006

@<SCITEGIC>MOL_PROPERTY
VdW
SciTegic.value.DoubleValue
0.281

@<SCITEGIC>MOL_PROPERTY
VdW6
SciTegic.value.DoubleValue
-4.909

@<SCITEGIC>MOL_PROPERTY
VdW12
SciTegic.value.DoubleValue
5.190

@<SCITEGIC>MOL_PROPERTY
Bond
SciTegic.value.DoubleValue
0.156

@<SCITEGIC>MOL_PROPERTY
Angle
SciTegic.value.DoubleValue
0.974

@<SCITEGIC>MOL_PROPERTY
Pdih
SciTegic.value.DoubleValue
1.799

@<SCITEGIC>MOL_PROPERTY
Idih
SciTegic.value.DoubleValue
0.000

@<SCITEGIC>MOL_PROPERTY
Tether
SciTegic.value.DoubleValue
0.000

@<TRIPOS>MOLECULE
guest-s11_confgen4.mol2 : confsearch ligand conformer 682
          20          19           1
SMALL
USER_CHARGES
 
@<TRIPOS>ATOM
       1    N1      21.500998   17.620167   23.347246 N.4        1 MOL1        -0.5919
       2    H1      21.686844   18.623684   23.421034 H          1 MOL1         0.3682
       3    H2      21.106745   17.318769   24.243921 H          1 MOL1         0.3682
       4    H3      22.408271   17.152193   23.249789 H          1 MOL1         0.3682
       5    C1      20.575728   17.298329   22.189288 C.3        1 MOL1         0.0252
       6    H4      20.444357   16.212878   22.179503 H          1 MOL1         0.0971
       7    H5      21.069576   17.587155   21.257605 H          1 MOL1         0.0971
       8    C2      19.189001   17.969693   22.277241 C.3        1 MOL1        -0.1369
       9    H6      18.494017   17.381234   21.663576 H          1 MOL1         0.0997
      10    H7      18.806555   17.910604   23.304888 H          1 MOL1         0.0997
      11    C3      19.147987   19.433713   21.768579 C.3        1 MOL1        -0.1329
      12    H8      18.100672   19.766294   21.769016 H          1 MOL1         0.0997
      13    H9      19.478188   19.466698   20.721037 H          1 MOL1         0.0997
      14    C4      19.987512   20.427274   22.605446 C.3        1 MOL1        -0.1305
      15    H10     19.737800   20.323022   23.670677 H          1 MOL1         0.0997
      16    H11     21.055793   20.202129   22.496184 H          1 MOL1         0.0997
      17    C5      19.745599   21.887048   22.165498 C.3        1 MOL1        -0.2320
      18    H12     18.692924   22.170266   22.295439 H          1 MOL1         0.1008
      19    H13     20.355339   22.578041   22.761985 H          1 MOL1         0.1008
      20    H14     20.010167   22.030191   21.109664 H          1 MOL1         0.1008
@<TRIPOS>BOND
    1     1     2    1
    2     1     3    1
    3     1     4    1
    4     1     5    1
    5     5     6    1
    6     5     7    1
    7     5     8    1
    8     8     9    1
    9     8    10    1
   10     8    11    1
   11    11    12    1
   12    11    13    1
   13    11    14    1
   14    14    15    1
   15    14    16    1
   16    14    17    1
   17    17    18    1
   18    17    19    1
   19    17    20    1
@<TRIPOS>SUBSTRUCTURE
       1 MOL1            1 RESIDUE      1      MOL     
@<SCITEGIC>MOL_PROPERTY
VConf Rank
SciTegic.value.IntegerValue
682

@<SCITEGIC>MOL_PROPERTY
Conf_Id
SciTegic.value.IntegerValue
26

@<SCITEGIC>MOL_PROPERTY
Delta U+W
SciTegic.value.DoubleValue
2.809

@<SCITEGIC>MOL_PROPERTY
U+W
SciTegic.value.DoubleValue
-8.969

@<SCITEGIC>MOL_PROPERTY
Grad RMS
SciTegic.value.DoubleValue
0.000000

@<SCITEGIC>MOL_PROPERTY
U
SciTegic.value.DoubleValue
49.216

@<SCITEGIC>MOL_PROPERTY
W
SciTegic.value.DoubleValue
-58.185

@<SCITEGIC>MOL_PROPERTY
W(PB)
SciTegic.value.DoubleValue
-60.088

@<SCITEGIC>MOL_PROPERTY
W(SA)
SciTegic.value.DoubleValue
1.903

@<SCITEGIC>MOL_PROPERTY
Valence
SciTegic.value.DoubleValue
2.929

@<SCITEGIC>MOL_PROPERTY
Coulomb
SciTegic.value.DoubleValue
46.006

@<SCITEGIC>MOL_PROPERTY
VdW
SciTegic.value.DoubleValue
0.281

@<SCITEGIC>MOL_PROPERTY
VdW6
SciTegic.value.DoubleValue
-4.909

@<SCITEGIC>MOL_PROPERTY
VdW12
SciTegic.value.DoubleValue
5.190

@<SCITEGIC>MOL_PROPERTY
Bond
SciTegic.value.DoubleValue
0.156

@<SCITEGIC>MOL_PROPERTY
Angle
SciTegic.value.DoubleValue
0.974

@<SCITEGIC>MOL_PROPERTY
Pdih
SciTegic.value.DoubleValue
1.799

@<SCITEGIC>MOL_PROPERTY
Idih
SciTegic.value.DoubleValue
0.000

@<SCITEGIC>MOL_PROPERTY
Tether
SciTegic.value.DoubleValue
0.000

@<TRIPOS>MOLECULE
guest-s11_confgen4.mol2 : confsearch ligand conformer 683
          20          19           1
SMALL
USER_CHARGES
 
@<TRIPOS>ATOM
       1    N1      21.621884   17.479095   23.333702 N.4        1 MOL1        -0.5919
       2    H1      22.200793   18.279016   23.061802 H          1 MOL1         0.3682
       3    H2      21.686919   17.390672   24.352520 H          1 MOL1         0.3682
       4    H3      22.058175   16.642165   22.933068 H          1 MOL1         0.3682
       5    C1      20.186776   17.642564   22.872461 C.3        1 MOL1         0.0252
       6    H4      19.637761   16.744227   23.167555 H          1 MOL1         0.0971
       7    H5      20.184780   17.697653   21.780723 H          1 MOL1         0.0971
       8    C2      19.485878   18.885725   23.456915 C.3        1 MOL1        -0.1369
       9    H6      18.436617   18.884318   23.135079 H          1 MOL1         0.0997
      10    H7      19.463265   18.803939   24.551646 H          1 MOL1         0.0997
      11    C3      20.150772   20.229836   23.059071 C.3        1 MOL1        -0.1329
      12    H8      21.144335   20.295041   23.522522 H          1 MOL1         0.0997
      13    H9      19.567163   21.054412   23.491129 H          1 MOL1         0.0997
      14    C4      20.292929   20.458240   21.532423 C.3        1 MOL1        -0.1305
      15    H10     20.792479   21.423133   21.367253 H          1 MOL1         0.0997
      16    H11     20.953396   19.697996   21.093891 H          1 MOL1         0.0997
      17    C5      18.940173   20.463926   20.784853 C.3        1 MOL1        -0.2320
      18    H12     18.254385   21.205170   21.215219 H          1 MOL1         0.1008
      19    H13     19.086588   20.716912   19.726815 H          1 MOL1         0.1008
      20    H14     18.453803   19.481352   20.824792 H          1 MOL1         0.1008
@<TRIPOS>BOND
    1     1     2    1
    2     1     3    1
    3     1     4    1
    4     1     5    1
    5     5     6    1
    6     5     7    1
    7     5     8    1
    8     8     9    1
    9     8    10    1
   10     8    11    1
   11    11    12    1
   12    11    13    1
   13    11    14    1
   14    14    15    1
   15    14    16    1
   16    14    17    1
   17    17    18    1
   18    17    19    1
   19    17    20    1
@<TRIPOS>SUBSTRUCTURE
       1 MOL1            1 RESIDUE      1      MOL     
@<SCITEGIC>MOL_PROPERTY
VConf Rank
SciTegic.value.IntegerValue
683

@<SCITEGIC>MOL_PROPERTY
Conf_Id
SciTegic.value.IntegerValue
2

@<SCITEGIC>MOL_PROPERTY
Delta U+W
SciTegic.value.DoubleValue
0.994

@<SCITEGIC>MOL_PROPERTY
U+W
SciTegic.value.DoubleValue
-10.784

@<SCITEGIC>MOL_PROPERTY
Grad RMS
SciTegic.value.DoubleValue
0.000000

@<SCITEGIC>MOL_PROPERTY
U
SciTegic.value.DoubleValue
47.562

@<SCITEGIC>MOL_PROPERTY
W
SciTegic.value.DoubleValue
-58.346

@<SCITEGIC>MOL_PROPERTY
W(PB)
SciTegic.value.DoubleValue
-60.221

@<SCITEGIC>MOL_PROPERTY
W(SA)
SciTegic.value.DoubleValue
1.875

@<SCITEGIC>MOL_PROPERTY
Valence
SciTegic.value.DoubleValue
2.149

@<SCITEGIC>MOL_PROPERTY
Coulomb
SciTegic.value.DoubleValue
45.034

@<SCITEGIC>MOL_PROPERTY
VdW
SciTegic.value.DoubleValue
0.378

@<SCITEGIC>MOL_PROPERTY
VdW6
SciTegic.value.DoubleValue
-5.599

@<SCITEGIC>MOL_PROPERTY
VdW12
SciTegic.value.DoubleValue
5.977

@<SCITEGIC>MOL_PROPERTY
Bond
SciTegic.value.DoubleValue
0.185

@<SCITEGIC>MOL_PROPERTY
Angle
SciTegic.value.DoubleValue
0.935

@<SCITEGIC>MOL_PROPERTY
Pdih
SciTegic.value.DoubleValue
1.028

@<SCITEGIC>MOL_PROPERTY
Idih
SciTegic.value.DoubleValue
0.000

@<SCITEGIC>MOL_PROPERTY
Tether
SciTegic.value.DoubleValue
0.000

@<TRIPOS>MOLECULE
guest-s11_confgen4.mol2 : confsearch ligand conformer 684
          20          19           1
SMALL
USER_CHARGES
 
@<TRIPOS>ATOM
       1    N1      19.035120   17.054892   21.792126 N.4        1 MOL1        -0.5919
       2    H1      18.010580   17.065012   21.808051 H          1 MOL1         0.3682
       3    H2      19.329196   17.532893   20.935403 H          1 MOL1         0.3682
       4    H3      19.322531   16.074676   21.703358 H          1 MOL1         0.3682
       5    C1      19.624630   17.705609   23.028266 C.3        1 MOL1         0.0252
       6    H4      20.713437   17.632284   22.964577 H          1 MOL1         0.0971
       7    H5      19.296260   17.128655   23.897061 H          1 MOL1         0.0971
       8    C2      19.212678   19.180804   23.208214 C.3        1 MOL1        -0.1369
       9    H6      18.120527   19.239549   23.305128 H          1 MOL1         0.0997
      10    H7      19.617639   19.547613   24.160049 H          1 MOL1         0.0997
      11    C3      19.673416   20.109428   22.053930 C.3        1 MOL1        -0.1329
      12    H8      19.366012   21.138816   22.284282 H          1 MOL1         0.0997
      13    H9      19.137956   19.838835   21.134002 H          1 MOL1         0.0997
      14    C4      21.197613   20.089258   21.772054 C.3        1 MOL1        -0.1305
      15    H10     21.510868   19.088422   21.445410 H          1 MOL1         0.0997
      16    H11     21.407024   20.761194   20.927958 H          1 MOL1         0.0997
      17    C5      22.050842   20.530590   22.982866 C.3        1 MOL1        -0.2320
      18    H12     21.963076   19.823059   23.816712 H          1 MOL1         0.1008
      19    H13     23.111734   20.584830   22.706367 H          1 MOL1         0.1008
      20    H14     21.746069   21.522857   23.339909 H          1 MOL1         0.1008
@<TRIPOS>BOND
    1     1     2    1
    2     1     3    1
    3     1     4    1
    4     1     5    1
    5     5     6    1
    6     5     7    1
    7     5     8    1
    8     8     9    1
    9     8    10    1
   10     8    11    1
   11    11    12    1
   12    11    13    1
   13    11    14    1
   14    14    15    1
   15    14    16    1
   16    14    17    1
   17    17    18    1
   18    17    19    1
   19    17    20    1
@<TRIPOS>SUBSTRUCTURE
       1 MOL1            1 RESIDUE      1      MOL     
@<SCITEGIC>MOL_PROPERTY
VConf Rank
SciTegic.value.IntegerValue
684

@<SCITEGIC>MOL_PROPERTY
Conf_Id
SciTegic.value.IntegerValue
1

@<SCITEGIC>MOL_PROPERTY
Delta U+W
SciTegic.value.DoubleValue
1.032

@<SCITEGIC>MOL_PROPERTY
U+W
SciTegic.value.DoubleValue
-10.746

@<SCITEGIC>MOL_PROPERTY
Grad RMS
SciTegic.value.DoubleValue
0.000000

@<SCITEGIC>MOL_PROPERTY
U
SciTegic.value.DoubleValue
47.562

@<SCITEGIC>MOL_PROPERTY
W
SciTegic.value.DoubleValue
-58.308

@<SCITEGIC>MOL_PROPERTY
W(PB)
SciTegic.value.DoubleValue
-60.184

@<SCITEGIC>MOL_PROPERTY
W(SA)
SciTegic.value.DoubleValue
1.877

@<SCITEGIC>MOL_PROPERTY
Valence
SciTegic.value.DoubleValue
2.149

@<SCITEGIC>MOL_PROPERTY
Coulomb
SciTegic.value.DoubleValue
45.035

@<SCITEGIC>MOL_PROPERTY
VdW
SciTegic.value.DoubleValue
0.378

@<SCITEGIC>MOL_PROPERTY
VdW6
SciTegic.value.DoubleValue
-5.599

@<SCITEGIC>MOL_PROPERTY
VdW12
SciTegic.value.DoubleValue
5.978

@<SCITEGIC>MOL_PROPERTY
Bond
SciTegic.value.DoubleValue
0.185

@<SCITEGIC>MOL_PROPERTY
Angle
SciTegic.value.DoubleValue
0.935

@<SCITEGIC>MOL_PROPERTY
Pdih
SciTegic.value.DoubleValue
1.028

@<SCITEGIC>MOL_PROPERTY
Idih
SciTegic.value.DoubleValue
0.000

@<SCITEGIC>MOL_PROPERTY
Tether
SciTegic.value.DoubleValue
0.000

@<TRIPOS>MOLECULE
guest-s11_confgen4.mol2 : confsearch ligand conformer 685
          20          19           1
SMALL
USER_CHARGES
 
@<TRIPOS>ATOM
       1    N1      19.722619   16.840370   22.415300 N.4        1 MOL1        -0.5919
       2    H1      18.790471   16.554222   22.100164 H          1 MOL1         0.3682
       3    H2      20.267664   17.070005   21.579311 H          1 MOL1         0.3682
       4    H3      20.159598   16.015939   22.840396 H          1 MOL1         0.3682
       5    C1      19.658044   18.005647   23.383658 C.3        1 MOL1         0.0252
       6    H4      20.676351   18.236267   23.700492 H          1 MOL1         0.0971
       7    H5      19.100161   17.671550   24.262675 H          1 MOL1         0.0971
       8    C2      18.978562   19.263409   22.801376 C.3        1 MOL1        -0.1369
       9    H6      17.963460   18.987087   22.486679 H          1 MOL1         0.0997
      10    H7      18.853526   20.010210   23.596532 H          1 MOL1         0.0997
      11    C3      19.720351   19.904176   21.597429 C.3        1 MOL1        -0.1329
      12    H8      18.986949   20.484694   21.020763 H          1 MOL1         0.0997
      13    H9      20.084925   19.129768   20.910332 H          1 MOL1         0.0997
      14    C4      20.877441   20.864784   21.974796 C.3        1 MOL1        -0.1305
      15    H10     21.259539   21.322874   21.051702 H          1 MOL1         0.0997
      16    H11     20.488348   21.692313   22.584374 H          1 MOL1         0.0997
      17    C5      22.056278   20.193093   22.713109 C.3        1 MOL1        -0.2320
      18    H12     22.395666   19.291923   22.186356 H          1 MOL1         0.1008
      19    H13     22.907672   20.882735   22.779818 H          1 MOL1         0.1008
      20    H14     21.781664   19.919698   23.738729 H          1 MOL1         0.1008
@<TRIPOS>BOND
    1     1     2    1
    2     1     3    1
    3     1     4    1
    4     1     5    1
    5     5     6    1
    6     5     7    1
    7     5     8    1
    8     8     9    1
    9     8    10    1
   10     8    11    1
   11    11    12    1
   12    11    13    1
   13    11    14    1
   14    14    15    1
   15    14    16    1
   16    14    17    1
   17    17    18    1
   18    17    19    1
   19    17    20    1
@<TRIPOS>SUBSTRUCTURE
       1 MOL1            1 RESIDUE      1      MOL     
@<SCITEGIC>MOL_PROPERTY
VConf Rank
SciTegic.value.IntegerValue
685

@<SCITEGIC>MOL_PROPERTY
Conf_Id
SciTegic.value.IntegerValue
80

@<SCITEGIC>MOL_PROPERTY
Delta U+W
SciTegic.value.DoubleValue
2.920

@<SCITEGIC>MOL_PROPERTY
U+W
SciTegic.value.DoubleValue
-8.857

@<SCITEGIC>MOL_PROPERTY
Grad RMS
SciTegic.value.DoubleValue
0.000000

@<SCITEGIC>MOL_PROPERTY
U
SciTegic.value.DoubleValue
49.434

@<SCITEGIC>MOL_PROPERTY
W
SciTegic.value.DoubleValue
-58.292

@<SCITEGIC>MOL_PROPERTY
W(PB)
SciTegic.value.DoubleValue
-60.170

@<SCITEGIC>MOL_PROPERTY
W(SA)
SciTegic.value.DoubleValue
1.879

@<SCITEGIC>MOL_PROPERTY
Valence
SciTegic.value.DoubleValue
3.798

@<SCITEGIC>MOL_PROPERTY
Coulomb
SciTegic.value.DoubleValue
45.253

@<SCITEGIC>MOL_PROPERTY
VdW
SciTegic.value.DoubleValue
0.384

@<SCITEGIC>MOL_PROPERTY
VdW6
SciTegic.value.DoubleValue
-5.595

@<SCITEGIC>MOL_PROPERTY
VdW12
SciTegic.value.DoubleValue
5.979

@<SCITEGIC>MOL_PROPERTY
Bond
SciTegic.value.DoubleValue
0.198

@<SCITEGIC>MOL_PROPERTY
Angle
SciTegic.value.DoubleValue
1.368

@<SCITEGIC>MOL_PROPERTY
Pdih
SciTegic.value.DoubleValue
2.231

@<SCITEGIC>MOL_PROPERTY
Idih
SciTegic.value.DoubleValue
0.000

@<SCITEGIC>MOL_PROPERTY
Tether
SciTegic.value.DoubleValue
0.000

@<TRIPOS>MOLECULE
guest-s11_confgen4.mol2 : confsearch ligand conformer 686
          20          19           1
SMALL
USER_CHARGES
 
@<TRIPOS>ATOM
       1    N1      18.140186   19.119146   23.586611 N.4        1 MOL1        -0.5919
       2    H1      17.486017   19.899021   23.468516 H          1 MOL1         0.3682
       3    H2      17.616099   18.354235   24.024322 H          1 MOL1         0.3682
       4    H3      18.850376   19.419018   24.260699 H          1 MOL1         0.3682
       5    C1      18.757915   18.695939   22.267875 C.3        1 MOL1         0.0252
       6    H4      17.946618   18.351528   21.620804 H          1 MOL1         0.0971
       7    H5      19.415528   17.847132   22.461747 H          1 MOL1         0.0971
       8    C2      19.532202   19.823038   21.551735 C.3        1 MOL1        -0.1369
       9    H6      19.834400   19.479255   20.553683 H          1 MOL1         0.0997
      10    H7      18.839708   20.658688   21.384522 H          1 MOL1         0.0997
      11    C3      20.775175   20.347297   22.320172 C.3        1 MOL1        -0.1329
      12    H8      20.553967   20.450443   23.390288 H          1 MOL1         0.0997
      13    H9      20.984820   21.366008   21.965627 H          1 MOL1         0.0997
      14    C4      22.067937   19.513925   22.124469 C.3        1 MOL1        -0.1305
      15    H10     22.338601   19.494190   21.059512 H          1 MOL1         0.0997
      16    H11     22.891699   20.031061   22.636265 H          1 MOL1         0.0997
      17    C5      21.988403   18.067675   22.661090 C.3        1 MOL1        -0.2320
      18    H12     21.341640   17.443559   22.033215 H          1 MOL1         0.1008
      19    H13     22.983688   17.604711   22.659740 H          1 MOL1         0.1008
      20    H14     21.609552   18.044380   23.690988 H          1 MOL1         0.1008
@<TRIPOS>BOND
    1     1     2    1
    2     1     3    1
    3     1     4    1
    4     1     5    1
    5     5     6    1
    6     5     7    1
    7     5     8    1
    8     8     9    1
    9     8    10    1
   10     8    11    1
   11    11    12    1
   12    11    13    1
   13    11    14    1
   14    14    15    1
   15    14    16    1
   16    14    17    1
   17    17    18    1
   18    17    19    1
   19    17    20    1
@<TRIPOS>SUBSTRUCTURE
       1 MOL1            1 RESIDUE      1      MOL     
@<SCITEGIC>MOL_PROPERTY
VConf Rank
SciTegic.value.IntegerValue
686

@<SCITEGIC>MOL_PROPERTY
Conf_Id
SciTegic.value.IntegerValue
65

@<SCITEGIC>MOL_PROPERTY
Delta U+W
SciTegic.value.DoubleValue
2.949

@<SCITEGIC>MOL_PROPERTY
U+W
SciTegic.value.DoubleValue
-8.829

@<SCITEGIC>MOL_PROPERTY
Grad RMS
SciTegic.value.DoubleValue
0.000000

@<SCITEGIC>MOL_PROPERTY
U
SciTegic.value.DoubleValue
49.435

@<SCITEGIC>MOL_PROPERTY
W
SciTegic.value.DoubleValue
-58.263

@<SCITEGIC>MOL_PROPERTY
W(PB)
SciTegic.value.DoubleValue
-60.125

@<SCITEGIC>MOL_PROPERTY
W(SA)
SciTegic.value.DoubleValue
1.862

@<SCITEGIC>MOL_PROPERTY
Valence
SciTegic.value.DoubleValue
3.797

@<SCITEGIC>MOL_PROPERTY
Coulomb
SciTegic.value.DoubleValue
45.253

@<SCITEGIC>MOL_PROPERTY
VdW
SciTegic.value.DoubleValue
0.384

@<SCITEGIC>MOL_PROPERTY
VdW6
SciTegic.value.DoubleValue
-5.596

@<SCITEGIC>MOL_PROPERTY
VdW12
SciTegic.value.DoubleValue
5.980

@<SCITEGIC>MOL_PROPERTY
Bond
SciTegic.value.DoubleValue
0.198

@<SCITEGIC>MOL_PROPERTY
Angle
SciTegic.value.DoubleValue
1.369

@<SCITEGIC>MOL_PROPERTY
Pdih
SciTegic.value.DoubleValue
2.230

@<SCITEGIC>MOL_PROPERTY
Idih
SciTegic.value.DoubleValue
0.000

@<SCITEGIC>MOL_PROPERTY
Tether
SciTegic.value.DoubleValue
0.000

@<TRIPOS>MOLECULE
guest-s11_confgen4.mol2 : confsearch ligand conformer 687
          20          19           1
SMALL
USER_CHARGES
 
@<TRIPOS>ATOM
       1    N1      21.889670   19.552644   23.248827 N.4        1 MOL1        -0.5919
       2    H1      22.832975   19.155221   23.186276 H          1 MOL1         0.3682
       3    H2      21.641046   19.898516   22.317009 H          1 MOL1         0.3682
       4    H3      21.949416   20.365626   23.870033 H          1 MOL1         0.3682
       5    C1      20.881642   18.535871   23.748433 C.3        1 MOL1         0.0252
       6    H4      21.212946   18.218750   24.741001 H          1 MOL1         0.0971
       7    H5      20.905719   17.664612   23.088486 H          1 MOL1         0.0971
       8    C2      19.441340   19.078127   23.847929 C.3        1 MOL1        -0.1369
       9    H6      18.901119   18.458265   24.575764 H          1 MOL1         0.0997
      10    H7      19.453986   20.091561   24.270539 H          1 MOL1         0.0997
      11    C3      18.635258   19.061276   22.521352 C.3        1 MOL1        -0.1329
      12    H8      17.621336   19.418627   22.748921 H          1 MOL1         0.0997
      13    H9      18.509890   18.026853   22.172469 H          1 MOL1         0.0997
      14    C4      19.209236   19.941097   21.381622 C.3        1 MOL1        -0.1305
      15    H10     18.370871   20.371120   20.815512 H          1 MOL1         0.0997
      16    H11     19.755806   20.798793   21.796211 H          1 MOL1         0.0997
      17    C5      20.092777   19.149051   20.388730 C.3        1 MOL1        -0.2320
      18    H12     20.917502   18.626865   20.885465 H          1 MOL1         0.1008
      19    H13     19.496936   18.393781   19.859708 H          1 MOL1         0.1008
      20    H14     20.521954   19.819563   19.632819 H          1 MOL1         0.1008
@<TRIPOS>BOND
    1     1     2    1
    2     1     3    1
    3     1     4    1
    4     1     5    1
    5     5     6    1
    6     5     7    1
    7     5     8    1
    8     8     9    1
    9     8    10    1
   10     8    11    1
   11    11    12    1
   12    11    13    1
   13    11    14    1
   14    14    15    1
   15    14    16    1
   16    14    17    1
   17    17    18    1
   18    17    19    1
   19    17    20    1
@<TRIPOS>SUBSTRUCTURE
       1 MOL1            1 RESIDUE      1      MOL     
@<SCITEGIC>MOL_PROPERTY
VConf Rank
SciTegic.value.IntegerValue
687

@<SCITEGIC>MOL_PROPERTY
Conf_Id
SciTegic.value.IntegerValue
77

@<SCITEGIC>MOL_PROPERTY
Delta U+W
SciTegic.value.DoubleValue
5.366

@<SCITEGIC>MOL_PROPERTY
U+W
SciTegic.value.DoubleValue
-6.412

@<SCITEGIC>MOL_PROPERTY
Grad RMS
SciTegic.value.DoubleValue
0.000000

@<SCITEGIC>MOL_PROPERTY
U
SciTegic.value.DoubleValue
51.542

@<SCITEGIC>MOL_PROPERTY
W
SciTegic.value.DoubleValue
-57.954

@<SCITEGIC>MOL_PROPERTY
W(PB)
SciTegic.value.DoubleValue
-59.811

@<SCITEGIC>MOL_PROPERTY
W(SA)
SciTegic.value.DoubleValue
1.857

@<SCITEGIC>MOL_PROPERTY
Valence
SciTegic.value.DoubleValue
5.347

@<SCITEGIC>MOL_PROPERTY
Coulomb
SciTegic.value.DoubleValue
45.870

@<SCITEGIC>MOL_PROPERTY
VdW
SciTegic.value.DoubleValue
0.325

@<SCITEGIC>MOL_PROPERTY
VdW6
SciTegic.value.DoubleValue
-6.161

@<SCITEGIC>MOL_PROPERTY
VdW12
SciTegic.value.DoubleValue
6.486

@<SCITEGIC>MOL_PROPERTY
Bond
SciTegic.value.DoubleValue
0.201

@<SCITEGIC>MOL_PROPERTY
Angle
SciTegic.value.DoubleValue
1.484

@<SCITEGIC>MOL_PROPERTY
Pdih
SciTegic.value.DoubleValue
3.662

@<SCITEGIC>MOL_PROPERTY
Idih
SciTegic.value.DoubleValue
0.000

@<SCITEGIC>MOL_PROPERTY
Tether
SciTegic.value.DoubleValue
0.000

@<TRIPOS>MOLECULE
guest-s11_confgen4.mol2 : confsearch ligand conformer 688
          20          19           1
SMALL
USER_CHARGES
 
@<TRIPOS>ATOM
       1    N1      21.665220   19.039466   21.128209 N.4        1 MOL1        -0.5919
       2    H1      22.279269   19.859422   21.160168 H          1 MOL1         0.3682
       3    H2      21.752493   18.557892   22.028319 H          1 MOL1         0.3682
       4    H3      22.041118   18.413328   20.408254 H          1 MOL1         0.3682
       5    C1      20.226321   19.425020   20.844520 C.3        1 MOL1         0.0252
       6    H4      19.629735   18.513158   20.756233 H          1 MOL1         0.0971
       7    H5      20.216506   19.931851   19.875734 H          1 MOL1         0.0971
       8    C2      19.606157   20.356139   21.906039 C.3        1 MOL1        -0.1369
       9    H6      20.333571   21.125997   22.195860 H          1 MOL1         0.0997
      10    H7      18.774689   20.894767   21.432380 H          1 MOL1         0.0997
      11    C3      19.050224   19.642790   23.167758 C.3        1 MOL1        -0.1329
      12    H8      18.227886   18.970565   22.886088 H          1 MOL1         0.0997
      13    H9      18.593996   20.412516   23.805649 H          1 MOL1         0.0997
      14    C4      20.097181   18.876198   24.015542 C.3        1 MOL1        -0.1305
      15    H10     21.086464   19.343403   23.919101 H          1 MOL1         0.0997
      16    H11     19.827122   18.973359   25.076620 H          1 MOL1         0.0997
      17    C5      20.162655   17.367008   23.681059 C.3        1 MOL1        -0.2320
      18    H12     20.953065   16.875594   24.263250 H          1 MOL1         0.1008
      19    H13     19.213830   16.874743   23.931513 H          1 MOL1         0.1008
      20    H14     20.358374   17.180653   22.619664 H          1 MOL1         0.1008
@<TRIPOS>BOND
    1     1     2    1
    2     1     3    1
    3     1     4    1
    4     1     5    1
    5     5     6    1
    6     5     7    1
    7     5     8    1
    8     8     9    1
    9     8    10    1
   10     8    11    1
   11    11    12    1
   12    11    13    1
   13    11    14    1
   14    14    15    1
   15    14    16    1
   16    14    17    1
   17    17    18    1
   18    17    19    1
   19    17    20    1
@<TRIPOS>SUBSTRUCTURE
       1 MOL1            1 RESIDUE      1      MOL     
@<SCITEGIC>MOL_PROPERTY
VConf Rank
SciTegic.value.IntegerValue
688

@<SCITEGIC>MOL_PROPERTY
Conf_Id
SciTegic.value.IntegerValue
67

@<SCITEGIC>MOL_PROPERTY
Delta U+W
SciTegic.value.DoubleValue
5.353

@<SCITEGIC>MOL_PROPERTY
U+W
SciTegic.value.DoubleValue
-6.425

@<SCITEGIC>MOL_PROPERTY
Grad RMS
SciTegic.value.DoubleValue
0.000000

@<SCITEGIC>MOL_PROPERTY
U
SciTegic.value.DoubleValue
51.541

@<SCITEGIC>MOL_PROPERTY
W
SciTegic.value.DoubleValue
-57.966

@<SCITEGIC>MOL_PROPERTY
W(PB)
SciTegic.value.DoubleValue
-59.821

@<SCITEGIC>MOL_PROPERTY
W(SA)
SciTegic.value.DoubleValue
1.855

@<SCITEGIC>MOL_PROPERTY
Valence
SciTegic.value.DoubleValue
5.347

@<SCITEGIC>MOL_PROPERTY
Coulomb
SciTegic.value.DoubleValue
45.870

@<SCITEGIC>MOL_PROPERTY
VdW
SciTegic.value.DoubleValue
0.325

@<SCITEGIC>MOL_PROPERTY
VdW6
SciTegic.value.DoubleValue
-6.161

@<SCITEGIC>MOL_PROPERTY
VdW12
SciTegic.value.DoubleValue
6.486

@<SCITEGIC>MOL_PROPERTY
Bond
SciTegic.value.DoubleValue
0.201

@<SCITEGIC>MOL_PROPERTY
Angle
SciTegic.value.DoubleValue
1.485

@<SCITEGIC>MOL_PROPERTY
Pdih
SciTegic.value.DoubleValue
3.662

@<SCITEGIC>MOL_PROPERTY
Idih
SciTegic.value.DoubleValue
0.000

@<SCITEGIC>MOL_PROPERTY
Tether
SciTegic.value.DoubleValue
0.000

@<TRIPOS>MOLECULE
guest-s11_confgen4.mol2 : confsearch ligand conformer 689
          20          19           1
SMALL
USER_CHARGES
 
@<TRIPOS>ATOM
       1    N1      18.233467   18.321766   20.012850 N.4        1 MOL1        -0.5919
       2    H1      18.151633   17.321160   20.218954 H          1 MOL1         0.3682
       3    H2      17.329343   18.621865   19.633245 H          1 MOL1         0.3682
       4    H3      18.919520   18.418617   19.257643 H          1 MOL1         0.3682
       5    C1      18.623314   19.122812   21.238751 C.3        1 MOL1         0.0252
       6    H4      17.836506   18.998102   21.987683 H          1 MOL1         0.0971
       7    H5      18.662178   20.177828   20.954241 H          1 MOL1         0.0971
       8    C2      19.977266   18.696884   21.834289 C.3        1 MOL1        -0.1369
       9    H6      19.938900   17.632944   22.103784 H          1 MOL1         0.0997
      10    H7      20.761743   18.808601   21.073906 H          1 MOL1         0.0997
      11    C3      20.336850   19.536618   23.080194 C.3        1 MOL1        -0.1329
      12    H8      19.547351   19.426661   23.836759 H          1 MOL1         0.0997
      13    H9      20.369296   20.600906   22.808107 H          1 MOL1         0.0997
      14    C4      21.694745   19.117569   23.686871 C.3        1 MOL1        -0.1305
      15    H10     21.665956   18.053944   23.962409 H          1 MOL1         0.0997
      16    H11     22.487801   19.228110   22.933950 H          1 MOL1         0.0997
      17    C5      22.049784   19.959107   24.931354 C.3        1 MOL1        -0.2320
      18    H12     21.291662   19.842192   25.716720 H          1 MOL1         0.1008
      19    H13     23.016414   19.646996   25.347594 H          1 MOL1         0.1008
      20    H14     22.120063   21.025504   24.680215 H          1 MOL1         0.1008
@<TRIPOS>BOND
    1     1     2    1
    2     1     3    1
    3     1     4    1
    4     1     5    1
    5     5     6    1
    6     5     7    1
    7     5     8    1
    8     8     9    1
    9     8    10    1
   10     8    11    1
   11    11    12    1
   12    11    13    1
   13    11    14    1
   14    14    15    1
   15    14    16    1
   16    14    17    1
   17    17    18    1
   18    17    19    1
   19    17    20    1
@<TRIPOS>SUBSTRUCTURE
       1 MOL1            1 RESIDUE      1      MOL     
@<SCITEGIC>MOL_PROPERTY
VConf Rank
SciTegic.value.IntegerValue
689

@<SCITEGIC>MOL_PROPERTY
Conf_Id
SciTegic.value.IntegerValue
72

@<SCITEGIC>MOL_PROPERTY
Delta U+W
SciTegic.value.DoubleValue
0.000

@<SCITEGIC>MOL_PROPERTY
U+W
SciTegic.value.DoubleValue
-11.778

@<SCITEGIC>MOL_PROPERTY
Grad RMS
SciTegic.value.DoubleValue
0.000000

@<SCITEGIC>MOL_PROPERTY
U
SciTegic.value.DoubleValue
45.772

@<SCITEGIC>MOL_PROPERTY
W
SciTegic.value.DoubleValue
-57.550

@<SCITEGIC>MOL_PROPERTY
W(PB)
SciTegic.value.DoubleValue
-59.511

@<SCITEGIC>MOL_PROPERTY
W(SA)
SciTegic.value.DoubleValue
1.961

@<SCITEGIC>MOL_PROPERTY
Valence
SciTegic.value.DoubleValue
1.299

@<SCITEGIC>MOL_PROPERTY
Coulomb
SciTegic.value.DoubleValue
44.177

@<SCITEGIC>MOL_PROPERTY
VdW
SciTegic.value.DoubleValue
0.297

@<SCITEGIC>MOL_PROPERTY
VdW6
SciTegic.value.DoubleValue
-3.490

@<SCITEGIC>MOL_PROPERTY
VdW12
SciTegic.value.DoubleValue
3.786

@<SCITEGIC>MOL_PROPERTY
Bond
SciTegic.value.DoubleValue
0.096

@<SCITEGIC>MOL_PROPERTY
Angle
SciTegic.value.DoubleValue
0.381

@<SCITEGIC>MOL_PROPERTY
Pdih
SciTegic.value.DoubleValue
0.822

@<SCITEGIC>MOL_PROPERTY
Idih
SciTegic.value.DoubleValue
0.000

@<SCITEGIC>MOL_PROPERTY
Tether
SciTegic.value.DoubleValue
0.000

@<TRIPOS>MOLECULE
guest-s11_confgen4.mol2 : confsearch ligand conformer 690
          20          19           1
SMALL
USER_CHARGES
 
@<TRIPOS>ATOM
       1    N1      17.871563   19.690120   20.533905 N.4        1 MOL1        -0.5919
       2    H1      17.540963   20.488654   21.084708 H          1 MOL1         0.3682
       3    H2      18.442200   20.066369   19.770247 H          1 MOL1         0.3682
       4    H3      17.044418   19.262757   20.104052 H          1 MOL1         0.3682
       5    C1      18.642147   18.697521   21.380971 C.3        1 MOL1         0.0252
       6    H4      18.935613   17.862489   20.739026 H          1 MOL1         0.0971
       7    H5      17.967425   18.316653   22.152461 H          1 MOL1         0.0971
       8    C2      19.891821   19.307099   22.041273 C.3        1 MOL1        -0.1369
       9    H6      20.559021   19.702503   21.263899 H          1 MOL1         0.0997
      10    H7      19.587578   20.154460   22.668554 H          1 MOL1         0.0997
      11    C3      20.647461   18.259629   22.892710 C.3        1 MOL1        -0.1329
      12    H8      20.875967   17.386489   22.265691 H          1 MOL1         0.0997
      13    H9      19.994744   17.897714   23.699285 H          1 MOL1         0.0997
      14    C4      21.969894   18.791847   23.496519 C.3        1 MOL1        -0.1305
      15    H10     22.490171   17.961011   23.993472 H          1 MOL1         0.0997
      16    H11     22.635658   19.132890   22.691334 H          1 MOL1         0.0997
      17    C5      21.763728   19.932881   24.518806 C.3        1 MOL1        -0.2320
      18    H12     21.078822   19.626607   25.320126 H          1 MOL1         0.1008
      19    H13     22.719207   20.210370   24.982499 H          1 MOL1         0.1008
      20    H14     21.355626   20.832832   24.042400 H          1 MOL1         0.1008
@<TRIPOS>BOND
    1     1     2    1
    2     1     3    1
    3     1     4    1
    4     1     5    1
    5     5     6    1
    6     5     7    1
    7     5     8    1
    8     8     9    1
    9     8    10    1
   10     8    11    1
   11    11    12    1
   12    11    13    1
   13    11    14    1
   14    14    15    1
   15    14    16    1
   16    14    17    1
   17    17    18    1
   18    17    19    1
   19    17    20    1
@<TRIPOS>SUBSTRUCTURE
       1 MOL1            1 RESIDUE      1      MOL     
@<SCITEGIC>MOL_PROPERTY
VConf Rank
SciTegic.value.IntegerValue
690

@<SCITEGIC>MOL_PROPERTY
Conf_Id
SciTegic.value.IntegerValue
42

@<SCITEGIC>MOL_PROPERTY
Delta U+W
SciTegic.value.DoubleValue
0.508

@<SCITEGIC>MOL_PROPERTY
U+W
SciTegic.value.DoubleValue
-11.270

@<SCITEGIC>MOL_PROPERTY
Grad RMS
SciTegic.value.DoubleValue
0.000000

@<SCITEGIC>MOL_PROPERTY
U
SciTegic.value.DoubleValue
46.486

@<SCITEGIC>MOL_PROPERTY
W
SciTegic.value.DoubleValue
-57.756

@<SCITEGIC>MOL_PROPERTY
W(PB)
SciTegic.value.DoubleValue
-59.705

@<SCITEGIC>MOL_PROPERTY
W(SA)
SciTegic.value.DoubleValue
1.949

@<SCITEGIC>MOL_PROPERTY
Valence
SciTegic.value.DoubleValue
1.806

@<SCITEGIC>MOL_PROPERTY
Coulomb
SciTegic.value.DoubleValue
44.248

@<SCITEGIC>MOL_PROPERTY
VdW
SciTegic.value.DoubleValue
0.433

@<SCITEGIC>MOL_PROPERTY
VdW6
SciTegic.value.DoubleValue
-4.089

@<SCITEGIC>MOL_PROPERTY
VdW12
SciTegic.value.DoubleValue
4.522

@<SCITEGIC>MOL_PROPERTY
Bond
SciTegic.value.DoubleValue
0.131

@<SCITEGIC>MOL_PROPERTY
Angle
SciTegic.value.DoubleValue
0.628

@<SCITEGIC>MOL_PROPERTY
Pdih
SciTegic.value.DoubleValue
1.047

@<SCITEGIC>MOL_PROPERTY
Idih
SciTegic.value.DoubleValue
0.000

@<SCITEGIC>MOL_PROPERTY
Tether
SciTegic.value.DoubleValue
0.000

@<TRIPOS>MOLECULE
guest-s11_confgen4.mol2 : confsearch ligand conformer 691
          20          19           1
SMALL
USER_CHARGES
 
@<TRIPOS>ATOM
       1    N1      18.948754   16.309269   22.607942 N.4        1 MOL1        -0.5919
       2    H1      18.396838   16.442574   23.461161 H          1 MOL1         0.3682
       3    H2      18.333340   16.517594   21.815351 H          1 MOL1         0.3682
       4    H3      19.175474   15.310652   22.553700 H          1 MOL1         0.3682
       5    C1      20.195405   17.170876   22.599239 C.3        1 MOL1         0.0252
       6    H4      20.747621   16.956388   21.680239 H          1 MOL1         0.0971
       7    H5      20.815928   16.874970   23.449466 H          1 MOL1         0.0971
       8    C2      19.890486   18.677442   22.680210 C.3        1 MOL1        -0.1369
       9    H6      19.253110   18.959404   21.832674 H          1 MOL1         0.0997
      10    H7      19.322248   18.885902   23.596431 H          1 MOL1         0.0997
      11    C3      21.189743   19.517071   22.670790 C.3        1 MOL1        -0.1329
      12    H8      21.735806   19.343566   21.733081 H          1 MOL1         0.0997
      13    H9      21.847014   19.168168   23.479495 H          1 MOL1         0.0997
      14    C4      20.945991   21.034793   22.854569 C.3        1 MOL1        -0.1305
      15    H10     20.420986   21.214975   23.803136 H          1 MOL1         0.0997
      16    H11     21.918140   21.540116   22.941250 H          1 MOL1         0.0997
      17    C5      20.153679   21.675496   21.692125 C.3        1 MOL1        -0.2320
      18    H12     19.128811   21.287723   21.640145 H          1 MOL1         0.1008
      19    H13     20.087765   22.763038   21.825762 H          1 MOL1         0.1008
      20    H14     20.643201   21.485394   20.728152 H          1 MOL1         0.1008
@<TRIPOS>BOND
    1     1     2    1
    2     1     3    1
    3     1     4    1
    4     1     5    1
    5     5     6    1
    6     5     7    1
    7     5     8    1
    8     8     9    1
    9     8    10    1
   10     8    11    1
   11    11    12    1
   12    11    13    1
   13    11    14    1
   14    14    15    1
   15    14    16    1
   16    14    17    1
   17    17    18    1
   18    17    19    1
   19    17    20    1
@<TRIPOS>SUBSTRUCTURE
       1 MOL1            1 RESIDUE      1      MOL     
@<SCITEGIC>MOL_PROPERTY
VConf Rank
SciTegic.value.IntegerValue
691

@<SCITEGIC>MOL_PROPERTY
Conf_Id
SciTegic.value.IntegerValue
41

@<SCITEGIC>MOL_PROPERTY
Delta U+W
SciTegic.value.DoubleValue
0.515

@<SCITEGIC>MOL_PROPERTY
U+W
SciTegic.value.DoubleValue
-11.263

@<SCITEGIC>MOL_PROPERTY
Grad RMS
SciTegic.value.DoubleValue
0.000000

@<SCITEGIC>MOL_PROPERTY
U
SciTegic.value.DoubleValue
46.486

@<SCITEGIC>MOL_PROPERTY
W
SciTegic.value.DoubleValue
-57.749

@<SCITEGIC>MOL_PROPERTY
W(PB)
SciTegic.value.DoubleValue
-59.685

@<SCITEGIC>MOL_PROPERTY
W(SA)
SciTegic.value.DoubleValue
1.936

@<SCITEGIC>MOL_PROPERTY
Valence
SciTegic.value.DoubleValue
1.806

@<SCITEGIC>MOL_PROPERTY
Coulomb
SciTegic.value.DoubleValue
44.248

@<SCITEGIC>MOL_PROPERTY
VdW
SciTegic.value.DoubleValue
0.433

@<SCITEGIC>MOL_PROPERTY
VdW6
SciTegic.value.DoubleValue
-4.089

@<SCITEGIC>MOL_PROPERTY
VdW12
SciTegic.value.DoubleValue
4.522

@<SCITEGIC>MOL_PROPERTY
Bond
SciTegic.value.DoubleValue
0.131

@<SCITEGIC>MOL_PROPERTY
Angle
SciTegic.value.DoubleValue
0.628

@<SCITEGIC>MOL_PROPERTY
Pdih
SciTegic.value.DoubleValue
1.047

@<SCITEGIC>MOL_PROPERTY
Idih
SciTegic.value.DoubleValue
0.000

@<SCITEGIC>MOL_PROPERTY
Tether
SciTegic.value.DoubleValue
0.000

@<TRIPOS>MOLECULE
guest-s11_confgen4.mol2 : confsearch ligand conformer 692
          20          19           1
SMALL
USER_CHARGES
 
@<TRIPOS>ATOM
       1    N1      22.541974   19.105745   23.847010 N.4        1 MOL1        -0.5919
       2    H1      23.534641   18.862022   23.928952 H          1 MOL1         0.3682
       3    H2      22.499026   20.064669   23.489855 H          1 MOL1         0.3682
       4    H3      22.159290   19.119116   24.797572 H          1 MOL1         0.3682
       5    C1      21.796371   18.135043   22.951478 C.3        1 MOL1         0.0252
       6    H4      21.924070   17.133503   23.371251 H          1 MOL1         0.0971
       7    H5      22.267178   18.152346   21.964826 H          1 MOL1         0.0971
       8    C2      20.292029   18.441417   22.813783 C.3        1 MOL1        -0.1369
       9    H6      19.830107   17.621870   22.249356 H          1 MOL1         0.0997
      10    H7      19.825446   18.440567   23.807759 H          1 MOL1         0.0997
      11    C3      20.018587   19.788829   22.099060 C.3        1 MOL1        -0.1329
      12    H8      20.468746   19.773739   21.096764 H          1 MOL1         0.0997
      13    H9      20.513728   20.600774   22.647866 H          1 MOL1         0.0997
      14    C4      18.513112   20.131378   21.984237 C.3        1 MOL1        -0.1305
      15    H10     18.061033   20.161157   22.985538 H          1 MOL1         0.0997
      16    H11     18.413272   21.145512   21.572527 H          1 MOL1         0.0997
      17    C5      17.724222   19.151096   21.086204 C.3        1 MOL1        -0.2320
      18    H12     17.687969   18.144606   21.520867 H          1 MOL1         0.1008
      19    H13     16.688550   19.493034   20.962063 H          1 MOL1         0.1008
      20    H14     18.175181   19.079325   20.087961 H          1 MOL1         0.1008
@<TRIPOS>BOND
    1     1     2    1
    2     1     3    1
    3     1     4    1
    4     1     5    1
    5     5     6    1
    6     5     7    1
    7     5     8    1
    8     8     9    1
    9     8    10    1
   10     8    11    1
   11    11    12    1
   12    11    13    1
   13    11    14    1
   14    14    15    1
   15    14    16    1
   16    14    17    1
   17    17    18    1
   18    17    19    1
   19    17    20    1
@<TRIPOS>SUBSTRUCTURE
       1 MOL1            1 RESIDUE      1      MOL     
@<SCITEGIC>MOL_PROPERTY
VConf Rank
SciTegic.value.IntegerValue
692

@<SCITEGIC>MOL_PROPERTY
Conf_Id
SciTegic.value.IntegerValue
33

@<SCITEGIC>MOL_PROPERTY
Delta U+W
SciTegic.value.DoubleValue
0.703

@<SCITEGIC>MOL_PROPERTY
U+W
SciTegic.value.DoubleValue
-11.075

@<SCITEGIC>MOL_PROPERTY
Grad RMS
SciTegic.value.DoubleValue
0.000000

@<SCITEGIC>MOL_PROPERTY
U
SciTegic.value.DoubleValue
47.080

@<SCITEGIC>MOL_PROPERTY
W
SciTegic.value.DoubleValue
-58.154

@<SCITEGIC>MOL_PROPERTY
W(PB)
SciTegic.value.DoubleValue
-60.053

@<SCITEGIC>MOL_PROPERTY
W(SA)
SciTegic.value.DoubleValue
1.899

@<SCITEGIC>MOL_PROPERTY
Valence
SciTegic.value.DoubleValue
1.943

@<SCITEGIC>MOL_PROPERTY
Coulomb
SciTegic.value.DoubleValue
44.572

@<SCITEGIC>MOL_PROPERTY
VdW
SciTegic.value.DoubleValue
0.565

@<SCITEGIC>MOL_PROPERTY
VdW6
SciTegic.value.DoubleValue
-4.575

@<SCITEGIC>MOL_PROPERTY
VdW12
SciTegic.value.DoubleValue
5.139

@<SCITEGIC>MOL_PROPERTY
Bond
SciTegic.value.DoubleValue
0.158

@<SCITEGIC>MOL_PROPERTY
Angle
SciTegic.value.DoubleValue
0.700

@<SCITEGIC>MOL_PROPERTY
Pdih
SciTegic.value.DoubleValue
1.085

@<SCITEGIC>MOL_PROPERTY
Idih
SciTegic.value.DoubleValue
0.000

@<SCITEGIC>MOL_PROPERTY
Tether
SciTegic.value.DoubleValue
0.000

@<TRIPOS>MOLECULE
guest-s11_confgen4.mol2 : confsearch ligand conformer 693
          20          19           1
SMALL
USER_CHARGES
 
@<TRIPOS>ATOM
       1    N1      21.913044   17.749296   24.088864 N.4        1 MOL1        -0.5919
       2    H1      22.146822   16.965003   24.706709 H          1 MOL1         0.3682
       3    H2      22.784149   18.039718   23.633865 H          1 MOL1         0.3682
       4    H3      21.612798   18.522623   24.689494 H          1 MOL1         0.3682
       5    C1      20.846851   17.371287   23.078664 C.3        1 MOL1         0.0252
       6    H4      19.957016   17.050780   23.627219 H          1 MOL1         0.0971
       7    H5      21.220426   16.516516   22.508218 H          1 MOL1         0.0971
       8    C2      20.475453   18.508760   22.107026 C.3        1 MOL1        -0.1369
       9    H6      21.374192   18.840277   21.570318 H          1 MOL1         0.0997
      10    H7      19.792137   18.099614   21.352515 H          1 MOL1         0.0997
      11    C3      19.808176   19.711513   22.820639 C.3        1 MOL1        -0.1329
      12    H8      20.481380   20.093990   23.599175 H          1 MOL1         0.0997
      13    H9      18.897617   19.376593   23.336563 H          1 MOL1         0.0997
      14    C4      19.461009   20.879701   21.865762 C.3        1 MOL1        -0.1305
      15    H10     19.100922   21.728335   22.464175 H          1 MOL1         0.0997
      16    H11     20.371149   21.227451   21.357253 H          1 MOL1         0.0997
      17    C5      18.384223   20.519617   20.816650 C.3        1 MOL1        -0.2320
      18    H12     17.474382   20.139027   21.298671 H          1 MOL1         0.1008
      19    H13     18.107381   21.405851   20.231076 H          1 MOL1         0.1008
      20    H14     18.744326   19.759784   20.112198 H          1 MOL1         0.1008
@<TRIPOS>BOND
    1     1     2    1
    2     1     3    1
    3     1     4    1
    4     1     5    1
    5     5     6    1
    6     5     7    1
    7     5     8    1
    8     8     9    1
    9     8    10    1
   10     8    11    1
   11    11    12    1
   12    11    13    1
   13    11    14    1
   14    14    15    1
   15    14    16    1
   16    14    17    1
   17    17    18    1
   18    17    19    1
   19    17    20    1
@<TRIPOS>SUBSTRUCTURE
       1 MOL1            1 RESIDUE      1      MOL     
@<SCITEGIC>MOL_PROPERTY
VConf Rank
SciTegic.value.IntegerValue
693

@<SCITEGIC>MOL_PROPERTY
Conf_Id
SciTegic.value.IntegerValue
24

@<SCITEGIC>MOL_PROPERTY
Delta U+W
SciTegic.value.DoubleValue
0.847

@<SCITEGIC>MOL_PROPERTY
U+W
SciTegic.value.DoubleValue
-10.931

@<SCITEGIC>MOL_PROPERTY
Grad RMS
SciTegic.value.DoubleValue
0.000000

@<SCITEGIC>MOL_PROPERTY
U
SciTegic.value.DoubleValue
47.080

@<SCITEGIC>MOL_PROPERTY
W
SciTegic.value.DoubleValue
-58.011

@<SCITEGIC>MOL_PROPERTY
W(PB)
SciTegic.value.DoubleValue
-59.914

@<SCITEGIC>MOL_PROPERTY
W(SA)
SciTegic.value.DoubleValue
1.903

@<SCITEGIC>MOL_PROPERTY
Valence
SciTegic.value.DoubleValue
1.943

@<SCITEGIC>MOL_PROPERTY
Coulomb
SciTegic.value.DoubleValue
44.572

@<SCITEGIC>MOL_PROPERTY
VdW
SciTegic.value.DoubleValue
0.565

@<SCITEGIC>MOL_PROPERTY
VdW6
SciTegic.value.DoubleValue
-4.575

@<SCITEGIC>MOL_PROPERTY
VdW12
SciTegic.value.DoubleValue
5.140

@<SCITEGIC>MOL_PROPERTY
Bond
SciTegic.value.DoubleValue
0.158

@<SCITEGIC>MOL_PROPERTY
Angle
SciTegic.value.DoubleValue
0.700

@<SCITEGIC>MOL_PROPERTY
Pdih
SciTegic.value.DoubleValue
1.085

@<SCITEGIC>MOL_PROPERTY
Idih
SciTegic.value.DoubleValue
0.000

@<SCITEGIC>MOL_PROPERTY
Tether
SciTegic.value.DoubleValue
0.000

@<TRIPOS>MOLECULE
guest-s11_confgen4.mol2 : confsearch ligand conformer 694
          20          19           1
SMALL
USER_CHARGES
 
@<TRIPOS>ATOM
       1    N1      19.257806   17.002269   23.871232 N.4        1 MOL1        -0.5919
       2    H1      19.457600   16.019281   23.658376 H          1 MOL1         0.3682
       3    H2      19.828544   17.252260   24.684856 H          1 MOL1         0.3682
       4    H3      18.277179   17.048984   24.165337 H          1 MOL1         0.3682
       5    C1      19.536648   17.903267   22.685155 C.3        1 MOL1         0.0252
       6    H4      18.918948   17.563115   21.849619 H          1 MOL1         0.0971
       7    H5      20.587102   17.779502   22.409088 H          1 MOL1         0.0971
       8    C2      19.247065   19.388663   22.972152 C.3        1 MOL1        -0.1369
       9    H6      18.201021   19.495874   23.288471 H          1 MOL1         0.0997
      10    H7      19.859969   19.728717   23.816643 H          1 MOL1         0.0997
      11    C3      19.491809   20.295970   21.740531 C.3        1 MOL1        -0.1329
      12    H8      19.255699   21.334514   22.010609 H          1 MOL1         0.0997
      13    H9      18.781526   20.021085   20.948428 H          1 MOL1         0.0997
      14    C4      20.929510   20.236592   21.163718 C.3        1 MOL1        -0.1305
      15    H10     21.147191   19.226801   20.789934 H          1 MOL1         0.0997
      16    H11     20.983435   20.899453   20.288739 H          1 MOL1         0.0997
      17    C5      22.016366   20.661114   22.177392 C.3        1 MOL1        -0.2320
      18    H12     23.001641   20.691483   21.694468 H          1 MOL1         0.1008
      19    H13     21.810192   21.660458   22.582088 H          1 MOL1         0.1008
      20    H14     22.082029   19.956890   23.016077 H          1 MOL1         0.1008
@<TRIPOS>BOND
    1     1     2    1
    2     1     3    1
    3     1     4    1
    4     1     5    1
    5     5     6    1
    6     5     7    1
    7     5     8    1
    8     8     9    1
    9     8    10    1
   10     8    11    1
   11    11    12    1
   12    11    13    1
   13    11    14    1
   14    14    15    1
   15    14    16    1
   16    14    17    1
   17    17    18    1
   18    17    19    1
   19    17    20    1
@<TRIPOS>SUBSTRUCTURE
       1 MOL1            1 RESIDUE      1      MOL     
@<SCITEGIC>MOL_PROPERTY
VConf Rank
SciTegic.value.IntegerValue
694

@<SCITEGIC>MOL_PROPERTY
Conf_Id
SciTegic.value.IntegerValue
64

@<SCITEGIC>MOL_PROPERTY
Delta U+W
SciTegic.value.DoubleValue
0.707

@<SCITEGIC>MOL_PROPERTY
U+W
SciTegic.value.DoubleValue
-11.070

@<SCITEGIC>MOL_PROPERTY
Grad RMS
SciTegic.value.DoubleValue
0.000000

@<SCITEGIC>MOL_PROPERTY
U
SciTegic.value.DoubleValue
47.077

@<SCITEGIC>MOL_PROPERTY
W
SciTegic.value.DoubleValue
-58.148

@<SCITEGIC>MOL_PROPERTY
W(PB)
SciTegic.value.DoubleValue
-60.054

@<SCITEGIC>MOL_PROPERTY
W(SA)
SciTegic.value.DoubleValue
1.906

@<SCITEGIC>MOL_PROPERTY
Valence
SciTegic.value.DoubleValue
2.039

@<SCITEGIC>MOL_PROPERTY
Coulomb
SciTegic.value.DoubleValue
44.655

@<SCITEGIC>MOL_PROPERTY
VdW
SciTegic.value.DoubleValue
0.383

@<SCITEGIC>MOL_PROPERTY
VdW6
SciTegic.value.DoubleValue
-4.912

@<SCITEGIC>MOL_PROPERTY
VdW12
SciTegic.value.DoubleValue
5.295

@<SCITEGIC>MOL_PROPERTY
Bond
SciTegic.value.DoubleValue
0.159

@<SCITEGIC>MOL_PROPERTY
Angle
SciTegic.value.DoubleValue
0.856

@<SCITEGIC>MOL_PROPERTY
Pdih
SciTegic.value.DoubleValue
1.024

@<SCITEGIC>MOL_PROPERTY
Idih
SciTegic.value.DoubleValue
0.000

@<SCITEGIC>MOL_PROPERTY
Tether
SciTegic.value.DoubleValue
0.000

@<TRIPOS>MOLECULE
guest-s11_confgen4.mol2 : confsearch ligand conformer 695
          20          19           1
SMALL
USER_CHARGES
 
@<TRIPOS>ATOM
       1    N1      18.668329   16.801120   22.763925 N.4        1 MOL1        -0.5919
       2    H1      18.073061   16.791608   23.598115 H          1 MOL1         0.3682
       3    H2      18.075746   17.075496   21.974123 H          1 MOL1         0.3682
       4    H3      18.958987   15.832317   22.595324 H          1 MOL1         0.3682
       5    C1      19.857809   17.725577   22.927770 C.3        1 MOL1         0.0252
       6    H4      20.460383   17.661934   22.017913 H          1 MOL1         0.0971
       7    H5      20.458354   17.358734   23.764520 H          1 MOL1         0.0971
       8    C2      19.455307   19.190456   23.182216 C.3        1 MOL1        -0.1369
       9    H6      18.844709   19.556837   22.347117 H          1 MOL1         0.0997
      10    H7      18.816499   19.237478   24.074109 H          1 MOL1         0.0997
      11    C3      20.676716   20.119767   23.393256 C.3        1 MOL1        -0.1329
      12    H8      21.204692   19.812736   24.306748 H          1 MOL1         0.0997
      13    H9      20.318744   21.141565   23.580468 H          1 MOL1         0.0997
      14    C4      21.686975   20.144058   22.217667 C.3        1 MOL1        -0.1305
      15    H10     22.515580   20.816002   22.481841 H          1 MOL1         0.0997
      16    H11     22.136486   19.150814   22.082829 H          1 MOL1         0.0997
      17    C5      21.066717   20.619258   20.884073 C.3        1 MOL1        -0.2320
      18    H12     20.591962   21.602473   20.997526 H          1 MOL1         0.1008
      19    H13     21.840180   20.707514   20.110206 H          1 MOL1         0.1008
      20    H14     20.311979   19.912892   20.516577 H          1 MOL1         0.1008
@<TRIPOS>BOND
    1     1     2    1
    2     1     3    1
    3     1     4    1
    4     1     5    1
    5     5     6    1
    6     5     7    1
    7     5     8    1
    8     8     9    1
    9     8    10    1
   10     8    11    1
   11    11    12    1
   12    11    13    1
   13    11    14    1
   14    14    15    1
   15    14    16    1
   16    14    17    1
   17    17    18    1
   18    17    19    1
   19    17    20    1
@<TRIPOS>SUBSTRUCTURE
       1 MOL1            1 RESIDUE      1      MOL     
@<SCITEGIC>MOL_PROPERTY
VConf Rank
SciTegic.value.IntegerValue
695

@<SCITEGIC>MOL_PROPERTY
Conf_Id
SciTegic.value.IntegerValue
22

@<SCITEGIC>MOL_PROPERTY
Delta U+W
SciTegic.value.DoubleValue
0.731

@<SCITEGIC>MOL_PROPERTY
U+W
SciTegic.value.DoubleValue
-11.047

@<SCITEGIC>MOL_PROPERTY
Grad RMS
SciTegic.value.DoubleValue
0.000000

@<SCITEGIC>MOL_PROPERTY
U
SciTegic.value.DoubleValue
47.078

@<SCITEGIC>MOL_PROPERTY
W
SciTegic.value.DoubleValue
-58.125

@<SCITEGIC>MOL_PROPERTY
W(PB)
SciTegic.value.DoubleValue
-60.031

@<SCITEGIC>MOL_PROPERTY
W(SA)
SciTegic.value.DoubleValue
1.906

@<SCITEGIC>MOL_PROPERTY
Valence
SciTegic.value.DoubleValue
2.039

@<SCITEGIC>MOL_PROPERTY
Coulomb
SciTegic.value.DoubleValue
44.655

@<SCITEGIC>MOL_PROPERTY
VdW
SciTegic.value.DoubleValue
0.383

@<SCITEGIC>MOL_PROPERTY
VdW6
SciTegic.value.DoubleValue
-4.913

@<SCITEGIC>MOL_PROPERTY
VdW12
SciTegic.value.DoubleValue
5.296

@<SCITEGIC>MOL_PROPERTY
Bond
SciTegic.value.DoubleValue
0.159

@<SCITEGIC>MOL_PROPERTY
Angle
SciTegic.value.DoubleValue
0.856

@<SCITEGIC>MOL_PROPERTY
Pdih
SciTegic.value.DoubleValue
1.024

@<SCITEGIC>MOL_PROPERTY
Idih
SciTegic.value.DoubleValue
0.000

@<SCITEGIC>MOL_PROPERTY
Tether
SciTegic.value.DoubleValue
0.000

@<TRIPOS>MOLECULE
guest-s11_confgen4.mol2 : confsearch ligand conformer 696
          20          19           1
SMALL
USER_CHARGES
 
@<TRIPOS>ATOM
       1    N1      22.022072   18.125746   24.220263 N.4        1 MOL1        -0.5919
       2    H1      22.791487   17.891572   23.585049 H          1 MOL1         0.3682
       3    H2      22.384942   18.807078   24.894372 H          1 MOL1         0.3682
       4    H3      21.802179   17.274278   24.747654 H          1 MOL1         0.3682
       5    C1      20.813324   18.654910   23.474928 C.3        1 MOL1         0.0252
       6    H4      20.026369   18.856902   24.206568 H          1 MOL1         0.0971
       7    H5      20.468145   17.867209   22.801396 H          1 MOL1         0.0971
       8    C2      21.112118   19.930914   22.667954 C.3        1 MOL1        -0.1369
       9    H6      21.570111   20.672153   23.336333 H          1 MOL1         0.0997
      10    H7      21.858970   19.707795   21.894510 H          1 MOL1         0.0997
      11    C3      19.860008   20.568059   22.013601 C.3        1 MOL1        -0.1329
      12    H8      20.175832   21.511519   21.547028 H          1 MOL1         0.0997
      13    H9      19.130380   20.848806   22.785724 H          1 MOL1         0.0997
      14    C4      19.179028   19.699528   20.924055 C.3        1 MOL1        -0.1305
      15    H10     18.683815   20.370524   20.208073 H          1 MOL1         0.0997
      16    H11     19.935382   19.148863   20.347481 H          1 MOL1         0.0997
      17    C5      18.110912   18.725858   21.475356 C.3        1 MOL1        -0.2320
      18    H12     18.542814   17.962467   22.130771 H          1 MOL1         0.1008
      19    H13     17.341121   19.265604   22.042011 H          1 MOL1         0.1008
      20    H14     17.609597   18.202828   20.650670 H          1 MOL1         0.1008
@<TRIPOS>BOND
    1     1     2    1
    2     1     3    1
    3     1     4    1
    4     1     5    1
    5     5     6    1
    6     5     7    1
    7     5     8    1
    8     8     9    1
    9     8    10    1
   10     8    11    1
   11    11    12    1
   12    11    13    1
   13    11    14    1
   14    14    15    1
   15    14    16    1
   16    14    17    1
   17    17    18    1
   18    17    19    1
   19    17    20    1
@<TRIPOS>SUBSTRUCTURE
       1 MOL1            1 RESIDUE      1      MOL     
@<SCITEGIC>MOL_PROPERTY
VConf Rank
SciTegic.value.IntegerValue
696

@<SCITEGIC>MOL_PROPERTY
Conf_Id
SciTegic.value.IntegerValue
61

@<SCITEGIC>MOL_PROPERTY
Delta U+W
SciTegic.value.DoubleValue
2.669

@<SCITEGIC>MOL_PROPERTY
U+W
SciTegic.value.DoubleValue
-9.108

@<SCITEGIC>MOL_PROPERTY
Grad RMS
SciTegic.value.DoubleValue
0.000000

@<SCITEGIC>MOL_PROPERTY
U
SciTegic.value.DoubleValue
48.916

@<SCITEGIC>MOL_PROPERTY
W
SciTegic.value.DoubleValue
-58.025

@<SCITEGIC>MOL_PROPERTY
W(PB)
SciTegic.value.DoubleValue
-59.935

@<SCITEGIC>MOL_PROPERTY
W(SA)
SciTegic.value.DoubleValue
1.911

@<SCITEGIC>MOL_PROPERTY
Valence
SciTegic.value.DoubleValue
3.785

@<SCITEGIC>MOL_PROPERTY
Coulomb
SciTegic.value.DoubleValue
44.716

@<SCITEGIC>MOL_PROPERTY
VdW
SciTegic.value.DoubleValue
0.415

@<SCITEGIC>MOL_PROPERTY
VdW6
SciTegic.value.DoubleValue
-4.836

@<SCITEGIC>MOL_PROPERTY
VdW12
SciTegic.value.DoubleValue
5.251

@<SCITEGIC>MOL_PROPERTY
Bond
SciTegic.value.DoubleValue
0.175

@<SCITEGIC>MOL_PROPERTY
Angle
SciTegic.value.DoubleValue
1.195

@<SCITEGIC>MOL_PROPERTY
Pdih
SciTegic.value.DoubleValue
2.415

@<SCITEGIC>MOL_PROPERTY
Idih
SciTegic.value.DoubleValue
0.000

@<SCITEGIC>MOL_PROPERTY
Tether
SciTegic.value.DoubleValue
0.000

@<TRIPOS>MOLECULE
guest-s11_confgen4.mol2 : confsearch ligand conformer 697
          20          19           1
SMALL
USER_CHARGES
 
@<TRIPOS>ATOM
       1    N1      21.224229   17.995895   20.700238 N.4        1 MOL1        -0.5919
       2    H1      21.122951   17.330111   19.926859 H          1 MOL1         0.3682
       3    H2      22.219346   18.234021   20.758051 H          1 MOL1         0.3682
       4    H3      20.982653   17.496668   21.560144 H          1 MOL1         0.3682
       5    C1      20.361979   19.227223   20.497936 C.3        1 MOL1         0.0252
       6    H4      19.321801   18.909906   20.385348 H          1 MOL1         0.0971
       7    H5      20.678776   19.686175   19.557424 H          1 MOL1         0.0971
       8    C2      20.471381   20.273228   21.627263 C.3        1 MOL1        -0.1369
       9    H6      21.520444   20.393763   21.928516 H          1 MOL1         0.0997
      10    H7      20.163858   21.243204   21.214411 H          1 MOL1         0.0997
      11    C3      19.583812   19.981465   22.864544 C.3        1 MOL1        -0.1329
      12    H8      18.531376   19.921795   22.554247 H          1 MOL1         0.0997
      13    H9      19.653020   20.841462   23.545056 H          1 MOL1         0.0997
      14    C4      19.966251   18.699147   23.640245 C.3        1 MOL1        -0.1305
      15    H10     19.760432   17.813041   23.026808 H          1 MOL1         0.0997
      16    H11     21.043035   18.702535   23.860399 H          1 MOL1         0.0997
      17    C5      19.176194   18.576774   24.960795 C.3        1 MOL1        -0.2320
      18    H12     19.451858   17.657647   25.493961 H          1 MOL1         0.1008
      19    H13     19.382848   19.425540   25.625710 H          1 MOL1         0.1008
      20    H14     18.095052   18.545430   24.772596 H          1 MOL1         0.1008
@<TRIPOS>BOND
    1     1     2    1
    2     1     3    1
    3     1     4    1
    4     1     5    1
    5     5     6    1
    6     5     7    1
    7     5     8    1
    8     8     9    1
    9     8    10    1
   10     8    11    1
   11    11    12    1
   12    11    13    1
   13    11    14    1
   14    14    15    1
   15    14    16    1
   16    14    17    1
   17    17    18    1
   18    17    19    1
   19    17    20    1
@<TRIPOS>SUBSTRUCTURE
       1 MOL1            1 RESIDUE      1      MOL     
@<SCITEGIC>MOL_PROPERTY
VConf Rank
SciTegic.value.IntegerValue
697

@<SCITEGIC>MOL_PROPERTY
Conf_Id
SciTegic.value.IntegerValue
69

@<SCITEGIC>MOL_PROPERTY
Delta U+W
SciTegic.value.DoubleValue
2.811

@<SCITEGIC>MOL_PROPERTY
U+W
SciTegic.value.DoubleValue
-8.967

@<SCITEGIC>MOL_PROPERTY
Grad RMS
SciTegic.value.DoubleValue
0.000000

@<SCITEGIC>MOL_PROPERTY
U
SciTegic.value.DoubleValue
49.216

@<SCITEGIC>MOL_PROPERTY
W
SciTegic.value.DoubleValue
-58.183

@<SCITEGIC>MOL_PROPERTY
W(PB)
SciTegic.value.DoubleValue
-60.064

@<SCITEGIC>MOL_PROPERTY
W(SA)
SciTegic.value.DoubleValue
1.881

@<SCITEGIC>MOL_PROPERTY
Valence
SciTegic.value.DoubleValue
2.929

@<SCITEGIC>MOL_PROPERTY
Coulomb
SciTegic.value.DoubleValue
46.006

@<SCITEGIC>MOL_PROPERTY
VdW
SciTegic.value.DoubleValue
0.281

@<SCITEGIC>MOL_PROPERTY
VdW6
SciTegic.value.DoubleValue
-4.909

@<SCITEGIC>MOL_PROPERTY
VdW12
SciTegic.value.DoubleValue
5.190

@<SCITEGIC>MOL_PROPERTY
Bond
SciTegic.value.DoubleValue
0.156

@<SCITEGIC>MOL_PROPERTY
Angle
SciTegic.value.DoubleValue
0.974

@<SCITEGIC>MOL_PROPERTY
Pdih
SciTegic.value.DoubleValue
1.799

@<SCITEGIC>MOL_PROPERTY
Idih
SciTegic.value.DoubleValue
0.000

@<SCITEGIC>MOL_PROPERTY
Tether
SciTegic.value.DoubleValue
0.000

@<TRIPOS>MOLECULE
guest-s11_confgen4.mol2 : confsearch ligand conformer 698
          20          19           1
SMALL
USER_CHARGES
 
@<TRIPOS>ATOM
       1    N1      18.145739   20.270521   21.867490 N.4        1 MOL1        -0.5919
       2    H1      19.064199   20.688970   21.699087 H          1 MOL1         0.3682
       3    H2      17.813387   19.899727   20.971746 H          1 MOL1         0.3682
       4    H3      17.510570   21.032624   22.127108 H          1 MOL1         0.3682
       5    C1      18.199558   19.195509   22.936144 C.3        1 MOL1         0.0252
       6    H4      17.181081   18.816678   23.057595 H          1 MOL1         0.0971
       7    H5      18.503097   19.656734   23.879795 H          1 MOL1         0.0971
       8    C2      19.136601   18.015033   22.604629 C.3        1 MOL1        -0.1369
       9    H6      18.805919   17.150568   23.195579 H          1 MOL1         0.0997
      10    H7      19.017193   17.723434   21.552714 H          1 MOL1         0.0997
      11    C3      20.631476   18.267593   22.929181 C.3        1 MOL1        -0.1329
      12    H8      21.180002   17.329813   22.764357 H          1 MOL1         0.0997
      13    H9      20.739827   18.500758   23.997525 H          1 MOL1         0.0997
      14    C4      21.290473   19.385748   22.087893 C.3        1 MOL1        -0.1305
      15    H10     21.093314   19.215694   21.020113 H          1 MOL1         0.0997
      16    H11     20.856557   20.358850   22.349887 H          1 MOL1         0.0997
      17    C5      22.815142   19.448888   22.321163 C.3        1 MOL1        -0.2320
      18    H12     23.298835   18.506178   22.033827 H          1 MOL1         0.1008
      19    H13     23.265791   20.252903   21.724901 H          1 MOL1         0.1008
      20    H14     23.045310   19.643161   23.376886 H          1 MOL1         0.1008
@<TRIPOS>BOND
    1     1     2    1
    2     1     3    1
    3     1     4    1
    4     1     5    1
    5     5     6    1
    6     5     7    1
    7     5     8    1
    8     8     9    1
    9     8    10    1
   10     8    11    1
   11    11    12    1
   12    11    13    1
   13    11    14    1
   14    14    15    1
   15    14    16    1
   16    14    17    1
   17    17    18    1
   18    17    19    1
   19    17    20    1
@<TRIPOS>SUBSTRUCTURE
       1 MOL1            1 RESIDUE      1      MOL     
@<SCITEGIC>MOL_PROPERTY
VConf Rank
SciTegic.value.IntegerValue
698

@<SCITEGIC>MOL_PROPERTY
Conf_Id
SciTegic.value.IntegerValue
26

@<SCITEGIC>MOL_PROPERTY
Delta U+W
SciTegic.value.DoubleValue
2.809

@<SCITEGIC>MOL_PROPERTY
U+W
SciTegic.value.DoubleValue
-8.969

@<SCITEGIC>MOL_PROPERTY
Grad RMS
SciTegic.value.DoubleValue
0.000000

@<SCITEGIC>MOL_PROPERTY
U
SciTegic.value.DoubleValue
49.216

@<SCITEGIC>MOL_PROPERTY
W
SciTegic.value.DoubleValue
-58.185

@<SCITEGIC>MOL_PROPERTY
W(PB)
SciTegic.value.DoubleValue
-60.088

@<SCITEGIC>MOL_PROPERTY
W(SA)
SciTegic.value.DoubleValue
1.903

@<SCITEGIC>MOL_PROPERTY
Valence
SciTegic.value.DoubleValue
2.929

@<SCITEGIC>MOL_PROPERTY
Coulomb
SciTegic.value.DoubleValue
46.006

@<SCITEGIC>MOL_PROPERTY
VdW
SciTegic.value.DoubleValue
0.281

@<SCITEGIC>MOL_PROPERTY
VdW6
SciTegic.value.DoubleValue
-4.909

@<SCITEGIC>MOL_PROPERTY
VdW12
SciTegic.value.DoubleValue
5.190

@<SCITEGIC>MOL_PROPERTY
Bond
SciTegic.value.DoubleValue
0.156

@<SCITEGIC>MOL_PROPERTY
Angle
SciTegic.value.DoubleValue
0.974

@<SCITEGIC>MOL_PROPERTY
Pdih
SciTegic.value.DoubleValue
1.799

@<SCITEGIC>MOL_PROPERTY
Idih
SciTegic.value.DoubleValue
0.000

@<SCITEGIC>MOL_PROPERTY
Tether
SciTegic.value.DoubleValue
0.000

@<TRIPOS>MOLECULE
guest-s11_confgen4.mol2 : confsearch ligand conformer 699
          20          19           1
SMALL
USER_CHARGES
 
@<TRIPOS>ATOM
       1    N1      18.803500   17.266747   23.140994 N.4        1 MOL1        -0.5919
       2    H1      18.236668   17.809039   22.482542 H          1 MOL1         0.3682
       3    H2      19.011240   16.368646   22.693449 H          1 MOL1         0.3682
       4    H3      18.210846   17.065449   23.953120 H          1 MOL1         0.3682
       5    C1      20.067338   18.006161   23.534670 C.3        1 MOL1         0.0252
       6    H4      20.604131   17.386405   24.258040 H          1 MOL1         0.0971
       7    H5      19.776708   18.934457   24.033401 H          1 MOL1         0.0971
       8    C2      20.995445   18.323948   22.344745 C.3        1 MOL1        -0.1369
       9    H6      21.914243   18.787133   22.726583 H          1 MOL1         0.0997
      10    H7      21.308412   17.383561   21.872133 H          1 MOL1         0.0997
      11    C3      20.354322   19.244998   21.273472 C.3        1 MOL1        -0.1329
      12    H8      19.532427   18.710010   20.779021 H          1 MOL1         0.0997
      13    H9      21.095860   19.441774   20.486960 H          1 MOL1         0.0997
      14    C4      19.820688   20.596654   21.813187 C.3        1 MOL1        -0.1305
      15    H10     19.371856   21.154522   20.979410 H          1 MOL1         0.0997
      16    H11     19.008687   20.425075   22.532708 H          1 MOL1         0.0997
      17    C5      20.915385   21.471571   22.465110 C.3        1 MOL1        -0.2320
      18    H12     21.747972   21.644499   21.770951 H          1 MOL1         0.1008
      19    H13     20.506996   22.449955   22.749484 H          1 MOL1         0.1008
      20    H14     21.316147   21.004789   23.373463 H          1 MOL1         0.1008
@<TRIPOS>BOND
    1     1     2    1
    2     1     3    1
    3     1     4    1
    4     1     5    1
    5     5     6    1
    6     5     7    1
    7     5     8    1
    8     8     9    1
    9     8    10    1
   10     8    11    1
   11    11    12    1
   12    11    13    1
   13    11    14    1
   14    14    15    1
   15    14    16    1
   16    14    17    1
   17    17    18    1
   18    17    19    1
   19    17    20    1
@<TRIPOS>SUBSTRUCTURE
       1 MOL1            1 RESIDUE      1      MOL     
@<SCITEGIC>MOL_PROPERTY
VConf Rank
SciTegic.value.IntegerValue
699

@<SCITEGIC>MOL_PROPERTY
Conf_Id
SciTegic.value.IntegerValue
2

@<SCITEGIC>MOL_PROPERTY
Delta U+W
SciTegic.value.DoubleValue
0.994

@<SCITEGIC>MOL_PROPERTY
U+W
SciTegic.value.DoubleValue
-10.784

@<SCITEGIC>MOL_PROPERTY
Grad RMS
SciTegic.value.DoubleValue
0.000000

@<SCITEGIC>MOL_PROPERTY
U
SciTegic.value.DoubleValue
47.562

@<SCITEGIC>MOL_PROPERTY
W
SciTegic.value.DoubleValue
-58.346

@<SCITEGIC>MOL_PROPERTY
W(PB)
SciTegic.value.DoubleValue
-60.221

@<SCITEGIC>MOL_PROPERTY
W(SA)
SciTegic.value.DoubleValue
1.875

@<SCITEGIC>MOL_PROPERTY
Valence
SciTegic.value.DoubleValue
2.149

@<SCITEGIC>MOL_PROPERTY
Coulomb
SciTegic.value.DoubleValue
45.034

@<SCITEGIC>MOL_PROPERTY
VdW
SciTegic.value.DoubleValue
0.378

@<SCITEGIC>MOL_PROPERTY
VdW6
SciTegic.value.DoubleValue
-5.599

@<SCITEGIC>MOL_PROPERTY
VdW12
SciTegic.value.DoubleValue
5.977

@<SCITEGIC>MOL_PROPERTY
Bond
SciTegic.value.DoubleValue
0.185

@<SCITEGIC>MOL_PROPERTY
Angle
SciTegic.value.DoubleValue
0.935

@<SCITEGIC>MOL_PROPERTY
Pdih
SciTegic.value.DoubleValue
1.028

@<SCITEGIC>MOL_PROPERTY
Idih
SciTegic.value.DoubleValue
0.000

@<SCITEGIC>MOL_PROPERTY
Tether
SciTegic.value.DoubleValue
0.000

@<TRIPOS>MOLECULE
guest-s11_confgen4.mol2 : confsearch ligand conformer 700
          20          19           1
SMALL
USER_CHARGES
 
@<TRIPOS>ATOM
       1    N1      19.184333   19.714403   24.579715 N.4        1 MOL1        -0.5919
       2    H1      19.423299   19.144604   25.397189 H          1 MOL1         0.3682
       3    H2      19.970602   20.349162   24.412976 H          1 MOL1         0.3682
       4    H3      18.380945   20.293897   24.844410 H          1 MOL1         0.3682
       5    C1      18.886299   18.858924   23.363850 C.3        1 MOL1         0.0252
       6    H4      18.608004   19.522702   22.541121 H          1 MOL1         0.0971
       7    H5      18.022143   18.232478   23.601144 H          1 MOL1         0.0971
       8    C2      20.065007   17.962785   22.932724 C.3        1 MOL1        -0.1369
       9    H6      20.314094   17.277308   23.753526 H          1 MOL1         0.0997
      10    H7      19.739449   17.326441   22.099891 H          1 MOL1         0.0997
      11    C3      21.337222   18.749321   22.520628 C.3        1 MOL1        -0.1329
      12    H8      22.106631   18.033747   22.199440 H          1 MOL1         0.0997
      13    H9      21.752780   19.255880   23.402057 H          1 MOL1         0.0997
      14    C4      21.119922   19.794662   21.396760 C.3        1 MOL1        -0.1305
      15    H10     20.425087   20.576032   21.733154 H          1 MOL1         0.0997
      16    H11     22.074364   20.303478   21.201832 H          1 MOL1         0.0997
      17    C5      20.606462   19.177208   20.076174 C.3        1 MOL1        -0.2320
      18    H12     19.600708   18.754902   20.193303 H          1 MOL1         0.1008
      19    H13     20.554164   19.940849   19.289407 H          1 MOL1         0.1008
      20    H14     21.275696   18.380490   19.726422 H          1 MOL1         0.1008
@<TRIPOS>BOND
    1     1     2    1
    2     1     3    1
    3     1     4    1
    4     1     5    1
    5     5     6    1
    6     5     7    1
    7     5     8    1
    8     8     9    1
    9     8    10    1
   10     8    11    1
   11    11    12    1
   12    11    13    1
   13    11    14    1
   14    14    15    1
   15    14    16    1
   16    14    17    1
   17    17    18    1
   18    17    19    1
   19    17    20    1
@<TRIPOS>SUBSTRUCTURE
       1 MOL1            1 RESIDUE      1      MOL     
@<SCITEGIC>MOL_PROPERTY
VConf Rank
SciTegic.value.IntegerValue
700

@<SCITEGIC>MOL_PROPERTY
Conf_Id
SciTegic.value.IntegerValue
1

@<SCITEGIC>MOL_PROPERTY
Delta U+W
SciTegic.value.DoubleValue
1.032

@<SCITEGIC>MOL_PROPERTY
U+W
SciTegic.value.DoubleValue
-10.746

@<SCITEGIC>MOL_PROPERTY
Grad RMS
SciTegic.value.DoubleValue
0.000000

@<SCITEGIC>MOL_PROPERTY
U
SciTegic.value.DoubleValue
47.562

@<SCITEGIC>MOL_PROPERTY
W
SciTegic.value.DoubleValue
-58.308

@<SCITEGIC>MOL_PROPERTY
W(PB)
SciTegic.value.DoubleValue
-60.184

@<SCITEGIC>MOL_PROPERTY
W(SA)
SciTegic.value.DoubleValue
1.877

@<SCITEGIC>MOL_PROPERTY
Valence
SciTegic.value.DoubleValue
2.149

@<SCITEGIC>MOL_PROPERTY
Coulomb
SciTegic.value.DoubleValue
45.035

@<SCITEGIC>MOL_PROPERTY
VdW
SciTegic.value.DoubleValue
0.378

@<SCITEGIC>MOL_PROPERTY
VdW6
SciTegic.value.DoubleValue
-5.599

@<SCITEGIC>MOL_PROPERTY
VdW12
SciTegic.value.DoubleValue
5.978

@<SCITEGIC>MOL_PROPERTY
Bond
SciTegic.value.DoubleValue
0.185

@<SCITEGIC>MOL_PROPERTY
Angle
SciTegic.value.DoubleValue
0.935

@<SCITEGIC>MOL_PROPERTY
Pdih
SciTegic.value.DoubleValue
1.028

@<SCITEGIC>MOL_PROPERTY
Idih
SciTegic.value.DoubleValue
0.000

@<SCITEGIC>MOL_PROPERTY
Tether
SciTegic.value.DoubleValue
0.000

@<TRIPOS>MOLECULE
guest-s11_confgen4.mol2 : confsearch ligand conformer 701
          20          19           1
SMALL
USER_CHARGES
 
@<TRIPOS>ATOM
       1    N1      17.933295   19.462114   22.655362 N.4        1 MOL1        -0.5919
       2    H1      17.412254   18.967086   23.385810 H          1 MOL1         0.3682
       3    H2      18.407340   20.251447   23.103602 H          1 MOL1         0.3682
       4    H3      17.240582   19.856165   22.010212 H          1 MOL1         0.3682
       5    C1      18.911313   18.548631   21.942068 C.3        1 MOL1         0.0252
       6    H4      19.405921   19.129318   21.161885 H          1 MOL1         0.0971
       7    H5      18.329859   17.760157   21.456533 H          1 MOL1         0.0971
       8    C2      19.957042   17.903460   22.876369 C.3        1 MOL1        -0.1369
       9    H6      19.419940   17.338709   23.649930 H          1 MOL1         0.0997
      10    H7      20.539418   17.162181   22.313375 H          1 MOL1         0.0997
      11    C3      20.919929   18.907590   23.565495 C.3        1 MOL1        -0.1329
      12    H8      21.307826   18.430650   24.476258 H          1 MOL1         0.0997
      13    H9      20.372824   19.794284   23.910709 H          1 MOL1         0.0997
      14    C4      22.141006   19.337591   22.712206 C.3        1 MOL1        -0.1305
      15    H10     22.790912   19.968599   23.334619 H          1 MOL1         0.0997
      16    H11     22.739280   18.453947   22.449482 H          1 MOL1         0.0997
      17    C5      21.785258   20.117552   21.427280 C.3        1 MOL1        -0.2320
      18    H12     21.093179   20.942530   21.639879 H          1 MOL1         0.1008
      19    H13     22.690311   20.546823   20.978354 H          1 MOL1         0.1008
      20    H14     21.331798   19.461927   20.674562 H          1 MOL1         0.1008
@<TRIPOS>BOND
    1     1     2    1
    2     1     3    1
    3     1     4    1
    4     1     5    1
    5     5     6    1
    6     5     7    1
    7     5     8    1
    8     8     9    1
    9     8    10    1
   10     8    11    1
   11    11    12    1
   12    11    13    1
   13    11    14    1
   14    14    15    1
   15    14    16    1
   16    14    17    1
   17    17    18    1
   18    17    19    1
   19    17    20    1
@<TRIPOS>SUBSTRUCTURE
       1 MOL1            1 RESIDUE      1      MOL     
@<SCITEGIC>MOL_PROPERTY
VConf Rank
SciTegic.value.IntegerValue
701

@<SCITEGIC>MOL_PROPERTY
Conf_Id
SciTegic.value.IntegerValue
80

@<SCITEGIC>MOL_PROPERTY
Delta U+W
SciTegic.value.DoubleValue
2.920

@<SCITEGIC>MOL_PROPERTY
U+W
SciTegic.value.DoubleValue
-8.857

@<SCITEGIC>MOL_PROPERTY
Grad RMS
SciTegic.value.DoubleValue
0.000000

@<SCITEGIC>MOL_PROPERTY
U
SciTegic.value.DoubleValue
49.434

@<SCITEGIC>MOL_PROPERTY
W
SciTegic.value.DoubleValue
-58.292

@<SCITEGIC>MOL_PROPERTY
W(PB)
SciTegic.value.DoubleValue
-60.170

@<SCITEGIC>MOL_PROPERTY
W(SA)
SciTegic.value.DoubleValue
1.879

@<SCITEGIC>MOL_PROPERTY
Valence
SciTegic.value.DoubleValue
3.798

@<SCITEGIC>MOL_PROPERTY
Coulomb
SciTegic.value.DoubleValue
45.253

@<SCITEGIC>MOL_PROPERTY
VdW
SciTegic.value.DoubleValue
0.384

@<SCITEGIC>MOL_PROPERTY
VdW6
SciTegic.value.DoubleValue
-5.595

@<SCITEGIC>MOL_PROPERTY
VdW12
SciTegic.value.DoubleValue
5.979

@<SCITEGIC>MOL_PROPERTY
Bond
SciTegic.value.DoubleValue
0.198

@<SCITEGIC>MOL_PROPERTY
Angle
SciTegic.value.DoubleValue
1.368

@<SCITEGIC>MOL_PROPERTY
Pdih
SciTegic.value.DoubleValue
2.231

@<SCITEGIC>MOL_PROPERTY
Idih
SciTegic.value.DoubleValue
0.000

@<SCITEGIC>MOL_PROPERTY
Tether
SciTegic.value.DoubleValue
0.000

@<TRIPOS>MOLECULE
guest-s11_confgen4.mol2 : confsearch ligand conformer 702
          20          19           1
SMALL
USER_CHARGES
 
@<TRIPOS>ATOM
       1    N1      22.376726   19.285521   23.320340 N.4        1 MOL1        -0.5919
       2    H1      23.088656   19.797576   22.790202 H          1 MOL1         0.3682
       3    H2      22.774249   19.094856   24.246066 H          1 MOL1         0.3682
       4    H3      22.247550   18.380774   22.858352 H          1 MOL1         0.3682
       5    C1      21.076839   20.060863   23.414657 C.3        1 MOL1         0.0252
       6    H4      21.286381   20.988777   23.953722 H          1 MOL1         0.0971
       7    H5      20.378700   19.474934   24.014495 H          1 MOL1         0.0971
       8    C2      20.453247   20.401802   22.044393 C.3        1 MOL1        -0.1369
       9    H6      19.594140   21.069481   22.191893 H          1 MOL1         0.0997
      10    H7      21.188637   20.981087   21.470416 H          1 MOL1         0.0997
      11    C3      20.017713   19.170950   21.204371 C.3        1 MOL1        -0.1329
      12    H8      20.771906   18.375644   21.262694 H          1 MOL1         0.0997
      13    H9      19.994934   19.475182   20.148744 H          1 MOL1         0.0997
      14    C4      18.618480   18.600516   21.551925 C.3        1 MOL1        -0.1305
      15    H10     17.853996   19.375144   21.399283 H          1 MOL1         0.0997
      16    H11     18.385292   17.800263   20.835568 H          1 MOL1         0.0997
      17    C5      18.493368   18.030142   22.981942 C.3        1 MOL1        -0.2320
      18    H12     18.491831   18.829588   23.732232 H          1 MOL1         0.1008
      19    H13     17.549104   17.481516   23.092863 H          1 MOL1         0.1008
      20    H14     19.312781   17.335631   23.207724 H          1 MOL1         0.1008
@<TRIPOS>BOND
    1     1     2    1
    2     1     3    1
    3     1     4    1
    4     1     5    1
    5     5     6    1
    6     5     7    1
    7     5     8    1
    8     8     9    1
    9     8    10    1
   10     8    11    1
   11    11    12    1
   12    11    13    1
   13    11    14    1
   14    14    15    1
   15    14    16    1
   16    14    17    1
   17    17    18    1
   18    17    19    1
   19    17    20    1
@<TRIPOS>SUBSTRUCTURE
       1 MOL1            1 RESIDUE      1      MOL     
@<SCITEGIC>MOL_PROPERTY
VConf Rank
SciTegic.value.IntegerValue
702

@<SCITEGIC>MOL_PROPERTY
Conf_Id
SciTegic.value.IntegerValue
65

@<SCITEGIC>MOL_PROPERTY
Delta U+W
SciTegic.value.DoubleValue
2.949

@<SCITEGIC>MOL_PROPERTY
U+W
SciTegic.value.DoubleValue
-8.829

@<SCITEGIC>MOL_PROPERTY
Grad RMS
SciTegic.value.DoubleValue
0.000000

@<SCITEGIC>MOL_PROPERTY
U
SciTegic.value.DoubleValue
49.435

@<SCITEGIC>MOL_PROPERTY
W
SciTegic.value.DoubleValue
-58.263

@<SCITEGIC>MOL_PROPERTY
W(PB)
SciTegic.value.DoubleValue
-60.125

@<SCITEGIC>MOL_PROPERTY
W(SA)
SciTegic.value.DoubleValue
1.862

@<SCITEGIC>MOL_PROPERTY
Valence
SciTegic.value.DoubleValue
3.797

@<SCITEGIC>MOL_PROPERTY
Coulomb
SciTegic.value.DoubleValue
45.253

@<SCITEGIC>MOL_PROPERTY
VdW
SciTegic.value.DoubleValue
0.384

@<SCITEGIC>MOL_PROPERTY
VdW6
SciTegic.value.DoubleValue
-5.596

@<SCITEGIC>MOL_PROPERTY
VdW12
SciTegic.value.DoubleValue
5.980

@<SCITEGIC>MOL_PROPERTY
Bond
SciTegic.value.DoubleValue
0.198

@<SCITEGIC>MOL_PROPERTY
Angle
SciTegic.value.DoubleValue
1.369

@<SCITEGIC>MOL_PROPERTY
Pdih
SciTegic.value.DoubleValue
2.230

@<SCITEGIC>MOL_PROPERTY
Idih
SciTegic.value.DoubleValue
0.000

@<SCITEGIC>MOL_PROPERTY
Tether
SciTegic.value.DoubleValue
0.000

@<TRIPOS>MOLECULE
guest-s11_confgen4.mol2 : confsearch ligand conformer 703
          20          19           1
SMALL
USER_CHARGES
 
@<TRIPOS>ATOM
       1    N1      19.605621   17.916332   23.836101 N.4        1 MOL1        -0.5919
       2    H1      18.771901   17.667196   24.378802 H          1 MOL1         0.3682
       3    H2      19.378947   17.778359   22.846501 H          1 MOL1         0.3682
       4    H3      20.333677   17.237397   24.079796 H          1 MOL1         0.3682
       5    C1      20.050570   19.340247   24.108206 C.3        1 MOL1         0.0252
       6    H4      20.274594   19.406288   25.176369 H          1 MOL1         0.0971
       7    H5      19.217485   20.015026   23.894097 H          1 MOL1         0.0971
       8    C2      21.294422   19.772315   23.305362 C.3        1 MOL1        -0.1369
       9    H6      21.769975   20.600602   23.847211 H          1 MOL1         0.0997
      10    H7      22.032251   18.959086   23.296649 H          1 MOL1         0.0997
      11    C3      21.012039   20.254547   21.857062 C.3        1 MOL1        -0.1329
      12    H8      21.969473   20.579999   21.427031 H          1 MOL1         0.0997
      13    H9      20.379830   21.153065   21.878129 H          1 MOL1         0.0997
      14    C4      20.396769   19.193410   20.909460 C.3        1 MOL1        -0.1305
      15    H10     20.805417   19.346318   19.900558 H          1 MOL1         0.0997
      16    H11     20.712761   18.184133   21.205725 H          1 MOL1         0.0997
      17    C5      18.855268   19.285131   20.813647 C.3        1 MOL1        -0.2320
      18    H12     18.369094   19.213324   21.792460 H          1 MOL1         0.1008
      19    H13     18.552664   20.240769   20.365866 H          1 MOL1         0.1008
      20    H14     18.458666   18.482676   20.178075 H          1 MOL1         0.1008
@<TRIPOS>BOND
    1     1     2    1
    2     1     3    1
    3     1     4    1
    4     1     5    1
    5     5     6    1
    6     5     7    1
    7     5     8    1
    8     8     9    1
    9     8    10    1
   10     8    11    1
   11    11    12    1
   12    11    13    1
   13    11    14    1
   14    14    15    1
   15    14    16    1
   16    14    17    1
   17    17    18    1
   18    17    19    1
   19    17    20    1
@<TRIPOS>SUBSTRUCTURE
       1 MOL1            1 RESIDUE      1      MOL     
@<SCITEGIC>MOL_PROPERTY
VConf Rank
SciTegic.value.IntegerValue
703

@<SCITEGIC>MOL_PROPERTY
Conf_Id
SciTegic.value.IntegerValue
77

@<SCITEGIC>MOL_PROPERTY
Delta U+W
SciTegic.value.DoubleValue
5.366

@<SCITEGIC>MOL_PROPERTY
U+W
SciTegic.value.DoubleValue
-6.412

@<SCITEGIC>MOL_PROPERTY
Grad RMS
SciTegic.value.DoubleValue
0.000000

@<SCITEGIC>MOL_PROPERTY
U
SciTegic.value.DoubleValue
51.542

@<SCITEGIC>MOL_PROPERTY
W
SciTegic.value.DoubleValue
-57.954

@<SCITEGIC>MOL_PROPERTY
W(PB)
SciTegic.value.DoubleValue
-59.811

@<SCITEGIC>MOL_PROPERTY
W(SA)
SciTegic.value.DoubleValue
1.857

@<SCITEGIC>MOL_PROPERTY
Valence
SciTegic.value.DoubleValue
5.347

@<SCITEGIC>MOL_PROPERTY
Coulomb
SciTegic.value.DoubleValue
45.870

@<SCITEGIC>MOL_PROPERTY
VdW
SciTegic.value.DoubleValue
0.325

@<SCITEGIC>MOL_PROPERTY
VdW6
SciTegic.value.DoubleValue
-6.161

@<SCITEGIC>MOL_PROPERTY
VdW12
SciTegic.value.DoubleValue
6.486

@<SCITEGIC>MOL_PROPERTY
Bond
SciTegic.value.DoubleValue
0.201

@<SCITEGIC>MOL_PROPERTY
Angle
SciTegic.value.DoubleValue
1.484

@<SCITEGIC>MOL_PROPERTY
Pdih
SciTegic.value.DoubleValue
3.662

@<SCITEGIC>MOL_PROPERTY
Idih
SciTegic.value.DoubleValue
0.000

@<SCITEGIC>MOL_PROPERTY
Tether
SciTegic.value.DoubleValue
0.000

@<TRIPOS>MOLECULE
guest-s11_confgen4.mol2 : confsearch ligand conformer 704
          20          19           1
SMALL
USER_CHARGES
 
@<TRIPOS>ATOM
       1    N1      21.584534   18.238300   21.288743 N.4        1 MOL1        -0.5919
       2    H1      21.321086   18.144822   20.302709 H          1 MOL1         0.3682
       3    H2      21.573588   19.237766   21.513856 H          1 MOL1         0.3682
       4    H3      22.554962   17.916786   21.369868 H          1 MOL1         0.3682
       5    C1      20.654121   17.456849   22.196062 C.3        1 MOL1         0.0252
       6    H4      21.017520   17.537056   23.224025 H          1 MOL1         0.0971
       7    H5      20.719818   16.408063   21.893983 H          1 MOL1         0.0971
       8    C2      19.181803   17.910162   22.123969 C.3        1 MOL1        -0.1369
       9    H6      18.900787   18.096066   21.078847 H          1 MOL1         0.0997
      10    H7      18.557491   17.069911   22.455669 H          1 MOL1         0.0997
      11    C3      18.824825   19.140122   23.001254 C.3        1 MOL1        -0.1329
      12    H8      18.981148   18.901258   24.062372 H          1 MOL1         0.0997
      13    H9      17.745139   19.315668   22.896440 H          1 MOL1         0.0997
      14    C4      19.561829   20.454358   22.637759 C.3        1 MOL1        -0.1305
      15    H10     19.810528   20.472411   21.568139 H          1 MOL1         0.0997
      16    H11     18.873242   21.296630   22.794876 H          1 MOL1         0.0997
      17    C5      20.819783   20.704921   23.502969 C.3        1 MOL1        -0.2320
      18    H12     21.339845   21.614522   23.175339 H          1 MOL1         0.1008
      19    H13     20.542311   20.844604   24.555975 H          1 MOL1         0.1008
      20    H14     21.531516   19.873593   23.459106 H          1 MOL1         0.1008
@<TRIPOS>BOND
    1     1     2    1
    2     1     3    1
    3     1     4    1
    4     1     5    1
    5     5     6    1
    6     5     7    1
    7     5     8    1
    8     8     9    1
    9     8    10    1
   10     8    11    1
   11    11    12    1
   12    11    13    1
   13    11    14    1
   14    14    15    1
   15    14    16    1
   16    14    17    1
   17    17    18    1
   18    17    19    1
   19    17    20    1
@<TRIPOS>SUBSTRUCTURE
       1 MOL1            1 RESIDUE      1      MOL     
@<SCITEGIC>MOL_PROPERTY
VConf Rank
SciTegic.value.IntegerValue
704

@<SCITEGIC>MOL_PROPERTY
Conf_Id
SciTegic.value.IntegerValue
67

@<SCITEGIC>MOL_PROPERTY
Delta U+W
SciTegic.value.DoubleValue
5.353

@<SCITEGIC>MOL_PROPERTY
U+W
SciTegic.value.DoubleValue
-6.425

@<SCITEGIC>MOL_PROPERTY
Grad RMS
SciTegic.value.DoubleValue
0.000000

@<SCITEGIC>MOL_PROPERTY
U
SciTegic.value.DoubleValue
51.541

@<SCITEGIC>MOL_PROPERTY
W
SciTegic.value.DoubleValue
-57.966

@<SCITEGIC>MOL_PROPERTY
W(PB)
SciTegic.value.DoubleValue
-59.821

@<SCITEGIC>MOL_PROPERTY
W(SA)
SciTegic.value.DoubleValue
1.855

@<SCITEGIC>MOL_PROPERTY
Valence
SciTegic.value.DoubleValue
5.347

@<SCITEGIC>MOL_PROPERTY
Coulomb
SciTegic.value.DoubleValue
45.870

@<SCITEGIC>MOL_PROPERTY
VdW
SciTegic.value.DoubleValue
0.325

@<SCITEGIC>MOL_PROPERTY
VdW6
SciTegic.value.DoubleValue
-6.161

@<SCITEGIC>MOL_PROPERTY
VdW12
SciTegic.value.DoubleValue
6.486

@<SCITEGIC>MOL_PROPERTY
Bond
SciTegic.value.DoubleValue
0.201

@<SCITEGIC>MOL_PROPERTY
Angle
SciTegic.value.DoubleValue
1.485

@<SCITEGIC>MOL_PROPERTY
Pdih
SciTegic.value.DoubleValue
3.662

@<SCITEGIC>MOL_PROPERTY
Idih
SciTegic.value.DoubleValue
0.000

@<SCITEGIC>MOL_PROPERTY
Tether
SciTegic.value.DoubleValue
0.000

@<TRIPOS>MOLECULE
guest-s11_confgen4.mol2 : confsearch ligand conformer 705
          20          19           1
SMALL
USER_CHARGES
 
@<TRIPOS>ATOM
       1    N1      18.000912   21.463609   21.953611 N.4        1 MOL1        -0.5919
       2    H1      17.153653   20.888174   21.991241 H          1 MOL1         0.3682
       3    H2      17.762160   22.371369   22.366610 H          1 MOL1         0.3682
       4    H3      18.206591   21.632519   20.963887 H          1 MOL1         0.3682
       5    C1      19.163887   20.807395   22.670103 C.3        1 MOL1         0.0252
       6    H4      18.887652   20.685850   23.721025 H          1 MOL1         0.0971
       7    H5      20.019603   21.485914   22.616456 H          1 MOL1         0.0971
       8    C2      19.548238   19.441139   22.074382 C.3        1 MOL1        -0.1369
       9    H6      18.681399   18.768124   22.115727 H          1 MOL1         0.0997
      10    H7      19.809455   19.565418   21.014954 H          1 MOL1         0.0997
      11    C3      20.735856   18.807151   22.832244 C.3        1 MOL1        -0.1329
      12    H8      20.472976   18.689107   23.892786 H          1 MOL1         0.0997
      13    H9      21.599714   19.485401   22.793266 H          1 MOL1         0.0997
      14    C4      21.130609   17.434514   22.242690 C.3        1 MOL1        -0.1305
      15    H10     20.269800   16.752211   22.281645 H          1 MOL1         0.0997
      16    H11     21.396472   17.548393   21.182314 H          1 MOL1         0.0997
      17    C5      22.317400   16.804906   23.003018 C.3        1 MOL1        -0.2320
      18    H12     22.069597   16.646525   24.060715 H          1 MOL1         0.1008
      19    H13     22.582712   15.831620   22.570156 H          1 MOL1         0.1008
      20    H14     23.205106   17.448846   22.952691 H          1 MOL1         0.1008
@<TRIPOS>BOND
    1     1     2    1
    2     1     3    1
    3     1     4    1
    4     1     5    1
    5     5     6    1
    6     5     7    1
    7     5     8    1
    8     8     9    1
    9     8    10    1
   10     8    11    1
   11    11    12    1
   12    11    13    1
   13    11    14    1
   14    14    15    1
   15    14    16    1
   16    14    17    1
   17    17    18    1
   18    17    19    1
   19    17    20    1
@<TRIPOS>SUBSTRUCTURE
       1 MOL1            1 RESIDUE      1      MOL     
@<SCITEGIC>MOL_PROPERTY
VConf Rank
SciTegic.value.IntegerValue
705

@<SCITEGIC>MOL_PROPERTY
Conf_Id
SciTegic.value.IntegerValue
72

@<SCITEGIC>MOL_PROPERTY
Delta U+W
SciTegic.value.DoubleValue
0.000

@<SCITEGIC>MOL_PROPERTY
U+W
SciTegic.value.DoubleValue
-11.778

@<SCITEGIC>MOL_PROPERTY
Grad RMS
SciTegic.value.DoubleValue
0.000000

@<SCITEGIC>MOL_PROPERTY
U
SciTegic.value.DoubleValue
45.772

@<SCITEGIC>MOL_PROPERTY
W
SciTegic.value.DoubleValue
-57.550

@<SCITEGIC>MOL_PROPERTY
W(PB)
SciTegic.value.DoubleValue
-59.511

@<SCITEGIC>MOL_PROPERTY
W(SA)
SciTegic.value.DoubleValue
1.961

@<SCITEGIC>MOL_PROPERTY
Valence
SciTegic.value.DoubleValue
1.299

@<SCITEGIC>MOL_PROPERTY
Coulomb
SciTegic.value.DoubleValue
44.177

@<SCITEGIC>MOL_PROPERTY
VdW
SciTegic.value.DoubleValue
0.297

@<SCITEGIC>MOL_PROPERTY
VdW6
SciTegic.value.DoubleValue
-3.490

@<SCITEGIC>MOL_PROPERTY
VdW12
SciTegic.value.DoubleValue
3.786

@<SCITEGIC>MOL_PROPERTY
Bond
SciTegic.value.DoubleValue
0.096

@<SCITEGIC>MOL_PROPERTY
Angle
SciTegic.value.DoubleValue
0.381

@<SCITEGIC>MOL_PROPERTY
Pdih
SciTegic.value.DoubleValue
0.822

@<SCITEGIC>MOL_PROPERTY
Idih
SciTegic.value.DoubleValue
0.000

@<SCITEGIC>MOL_PROPERTY
Tether
SciTegic.value.DoubleValue
0.000

@<TRIPOS>MOLECULE
guest-s11_confgen4.mol2 : confsearch ligand conformer 706
          20          19           1
SMALL
USER_CHARGES
 
@<TRIPOS>ATOM
       1    N1      20.440887   21.897781   23.714351 N.4        1 MOL1        -0.5919
       2    H1      19.445324   21.940258   23.953904 H          1 MOL1         0.3682
       3    H2      20.941610   21.602616   24.558459 H          1 MOL1         0.3682
       4    H3      20.739177   22.857887   23.512358 H          1 MOL1         0.3682
       5    C1      20.703529   20.969085   22.545969 C.3        1 MOL1         0.0252
       6    H4      21.774466   20.996622   22.327270 H          1 MOL1         0.0971
       7    H5      20.165763   21.358833   21.677401 H          1 MOL1         0.0971
       8    C2      20.267408   19.517897   22.816377 C.3        1 MOL1        -0.1369
       9    H6      20.797912   19.135941   23.698695 H          1 MOL1         0.0997
      10    H7      19.195768   19.504480   23.051907 H          1 MOL1         0.0997
      11    C3      20.555908   18.606446   21.600172 C.3        1 MOL1        -0.1329
      12    H8      21.618327   18.692596   21.332617 H          1 MOL1         0.0997
      13    H9      19.988638   18.961627   20.728599 H          1 MOL1         0.0997
      14    C4      20.231895   17.114314   21.855572 C.3        1 MOL1        -0.1305
      15    H10     20.562007   16.528024   20.986534 H          1 MOL1         0.0997
      16    H11     20.815369   16.748345   22.712019 H          1 MOL1         0.0997
      17    C5      18.729151   16.843979   22.096838 C.3        1 MOL1        -0.2320
      18    H12     18.120642   17.226054   21.266928 H          1 MOL1         0.1008
      19    H13     18.541609   15.765706   22.181152 H          1 MOL1         0.1008
      20    H14     18.378638   17.312405   23.024814 H          1 MOL1         0.1008
@<TRIPOS>BOND
    1     1     2    1
    2     1     3    1
    3     1     4    1
    4     1     5    1
    5     5     6    1
    6     5     7    1
    7     5     8    1
    8     8     9    1
    9     8    10    1
   10     8    11    1
   11    11    12    1
   12    11    13    1
   13    11    14    1
   14    14    15    1
   15    14    16    1
   16    14    17    1
   17    17    18    1
   18    17    19    1
   19    17    20    1
@<TRIPOS>SUBSTRUCTURE
       1 MOL1            1 RESIDUE      1      MOL     
@<SCITEGIC>MOL_PROPERTY
VConf Rank
SciTegic.value.IntegerValue
706

@<SCITEGIC>MOL_PROPERTY
Conf_Id
SciTegic.value.IntegerValue
42

@<SCITEGIC>MOL_PROPERTY
Delta U+W
SciTegic.value.DoubleValue
0.508

@<SCITEGIC>MOL_PROPERTY
U+W
SciTegic.value.DoubleValue
-11.270

@<SCITEGIC>MOL_PROPERTY
Grad RMS
SciTegic.value.DoubleValue
0.000000

@<SCITEGIC>MOL_PROPERTY
U
SciTegic.value.DoubleValue
46.486

@<SCITEGIC>MOL_PROPERTY
W
SciTegic.value.DoubleValue
-57.756

@<SCITEGIC>MOL_PROPERTY
W(PB)
SciTegic.value.DoubleValue
-59.705

@<SCITEGIC>MOL_PROPERTY
W(SA)
SciTegic.value.DoubleValue
1.949

@<SCITEGIC>MOL_PROPERTY
Valence
SciTegic.value.DoubleValue
1.806

@<SCITEGIC>MOL_PROPERTY
Coulomb
SciTegic.value.DoubleValue
44.248

@<SCITEGIC>MOL_PROPERTY
VdW
SciTegic.value.DoubleValue
0.433

@<SCITEGIC>MOL_PROPERTY
VdW6
SciTegic.value.DoubleValue
-4.089

@<SCITEGIC>MOL_PROPERTY
VdW12
SciTegic.value.DoubleValue
4.522

@<SCITEGIC>MOL_PROPERTY
Bond
SciTegic.value.DoubleValue
0.131

@<SCITEGIC>MOL_PROPERTY
Angle
SciTegic.value.DoubleValue
0.628

@<SCITEGIC>MOL_PROPERTY
Pdih
SciTegic.value.DoubleValue
1.047

@<SCITEGIC>MOL_PROPERTY
Idih
SciTegic.value.DoubleValue
0.000

@<SCITEGIC>MOL_PROPERTY
Tether
SciTegic.value.DoubleValue
0.000

@<TRIPOS>MOLECULE
guest-s11_confgen4.mol2 : confsearch ligand conformer 707
          20          19           1
SMALL
USER_CHARGES
 
@<TRIPOS>ATOM
       1    N1      22.609073   20.395686   23.588070 N.4        1 MOL1        -0.5919
       2    H1      23.272209   19.635408   23.407537 H          1 MOL1         0.3682
       3    H2      22.653429   21.031204   22.785272 H          1 MOL1         0.3682
       4    H3      22.965082   20.914479   24.397819 H          1 MOL1         0.3682
       5    C1      21.204455   19.878147   23.824252 C.3        1 MOL1         0.0252
       6    H4      20.560482   20.735314   24.038895 H          1 MOL1         0.0971
       7    H5      21.226050   19.235224   24.708378 H          1 MOL1         0.0971
       8    C2      20.639331   19.093178   22.626868 C.3        1 MOL1        -0.1369
       9    H6      20.638957   19.741993   21.741935 H          1 MOL1         0.0997
      10    H7      21.297501   18.242692   22.404837 H          1 MOL1         0.0997
      11    C3      19.207193   18.582745   22.912478 C.3        1 MOL1        -0.1329
      12    H8      18.538304   19.436520   23.089235 H          1 MOL1         0.0997
      13    H9      19.214557   17.998847   23.843473 H          1 MOL1         0.0997
      14    C4      18.629373   17.698125   21.781001 C.3        1 MOL1        -0.1305
      15    H10     19.283021   16.829930   21.617116 H          1 MOL1         0.0997
      16    H11     17.660584   17.295258   22.108238 H          1 MOL1         0.0997
      17    C5      18.428934   18.456610   20.449063 C.3        1 MOL1        -0.2320
      18    H12     19.385999   18.775979   20.018421 H          1 MOL1         0.1008
      19    H13     17.934469   17.812133   19.710750 H          1 MOL1         0.1008
      20    H14     17.801337   19.345941   20.591283 H          1 MOL1         0.1008
@<TRIPOS>BOND
    1     1     2    1
    2     1     3    1
    3     1     4    1
    4     1     5    1
    5     5     6    1
    6     5     7    1
    7     5     8    1
    8     8     9    1
    9     8    10    1
   10     8    11    1
   11    11    12    1
   12    11    13    1
   13    11    14    1
   14    14    15    1
   15    14    16    1
   16    14    17    1
   17    17    18    1
   18    17    19    1
   19    17    20    1
@<TRIPOS>SUBSTRUCTURE
       1 MOL1            1 RESIDUE      1      MOL     
@<SCITEGIC>MOL_PROPERTY
VConf Rank
SciTegic.value.IntegerValue
707

@<SCITEGIC>MOL_PROPERTY
Conf_Id
SciTegic.value.IntegerValue
41

@<SCITEGIC>MOL_PROPERTY
Delta U+W
SciTegic.value.DoubleValue
0.515

@<SCITEGIC>MOL_PROPERTY
U+W
SciTegic.value.DoubleValue
-11.263

@<SCITEGIC>MOL_PROPERTY
Grad RMS
SciTegic.value.DoubleValue
0.000000

@<SCITEGIC>MOL_PROPERTY
U
SciTegic.value.DoubleValue
46.486

@<SCITEGIC>MOL_PROPERTY
W
SciTegic.value.DoubleValue
-57.749

@<SCITEGIC>MOL_PROPERTY
W(PB)
SciTegic.value.DoubleValue
-59.685

@<SCITEGIC>MOL_PROPERTY
W(SA)
SciTegic.value.DoubleValue
1.936

@<SCITEGIC>MOL_PROPERTY
Valence
SciTegic.value.DoubleValue
1.806

@<SCITEGIC>MOL_PROPERTY
Coulomb
SciTegic.value.DoubleValue
44.248

@<SCITEGIC>MOL_PROPERTY
VdW
SciTegic.value.DoubleValue
0.433

@<SCITEGIC>MOL_PROPERTY
VdW6
SciTegic.value.DoubleValue
-4.089

@<SCITEGIC>MOL_PROPERTY
VdW12
SciTegic.value.DoubleValue
4.522

@<SCITEGIC>MOL_PROPERTY
Bond
SciTegic.value.DoubleValue
0.131

@<SCITEGIC>MOL_PROPERTY
Angle
SciTegic.value.DoubleValue
0.628

@<SCITEGIC>MOL_PROPERTY
Pdih
SciTegic.value.DoubleValue
1.047

@<SCITEGIC>MOL_PROPERTY
Idih
SciTegic.value.DoubleValue
0.000

@<SCITEGIC>MOL_PROPERTY
Tether
SciTegic.value.DoubleValue
0.000

@<TRIPOS>MOLECULE
guest-s11_confgen4.mol2 : confsearch ligand conformer 708
          20          19           1
SMALL
USER_CHARGES
 
@<TRIPOS>ATOM
       1    N1      19.205013   17.469597   24.467671 N.4        1 MOL1        -0.5919
       2    H1      18.619771   17.291186   25.290570 H          1 MOL1         0.3682
       3    H2      18.673586   17.155828   23.650312 H          1 MOL1         0.3682
       4    H3      20.025122   16.860353   24.547898 H          1 MOL1         0.3682
       5    C1      19.595381   18.931246   24.361096 C.3        1 MOL1         0.0252
       6    H4      20.116937   19.201994   25.283199 H          1 MOL1         0.0971
       7    H5      18.678896   19.524597   24.302504 H          1 MOL1         0.0971
       8    C2      20.497995   19.250378   23.153076 C.3        1 MOL1        -0.1369
       9    H6      20.815637   20.297258   23.235262 H          1 MOL1         0.0997
      10    H7      21.409479   18.640342   23.205445 H          1 MOL1         0.0997
      11    C3      19.784178   19.024649   21.796379 C.3        1 MOL1        -0.1329
      12    H8      18.885820   19.655084   21.741848 H          1 MOL1         0.0997
      13    H9      19.436191   17.985062   21.734962 H          1 MOL1         0.0997
      14    C4      20.687279   19.304887   20.570468 C.3        1 MOL1        -0.1305
      15    H10     21.580987   18.666670   20.613241 H          1 MOL1         0.0997
      16    H11     20.145365   19.012906   19.659964 H          1 MOL1         0.0997
      17    C5      21.111316   20.785953   20.442421 C.3        1 MOL1        -0.2320
      18    H12     21.762719   21.092921   21.269896 H          1 MOL1         0.1008
      19    H13     21.667024   20.946799   19.509541 H          1 MOL1         0.1008
      20    H14     20.235834   21.448041   20.429177 H          1 MOL1         0.1008
@<TRIPOS>BOND
    1     1     2    1
    2     1     3    1
    3     1     4    1
    4     1     5    1
    5     5     6    1
    6     5     7    1
    7     5     8    1
    8     8     9    1
    9     8    10    1
   10     8    11    1
   11    11    12    1
   12    11    13    1
   13    11    14    1
   14    14    15    1
   15    14    16    1
   16    14    17    1
   17    17    18    1
   18    17    19    1
   19    17    20    1
@<TRIPOS>SUBSTRUCTURE
       1 MOL1            1 RESIDUE      1      MOL     
@<SCITEGIC>MOL_PROPERTY
VConf Rank
SciTegic.value.IntegerValue
708

@<SCITEGIC>MOL_PROPERTY
Conf_Id
SciTegic.value.IntegerValue
33

@<SCITEGIC>MOL_PROPERTY
Delta U+W
SciTegic.value.DoubleValue
0.703

@<SCITEGIC>MOL_PROPERTY
U+W
SciTegic.value.DoubleValue
-11.075

@<SCITEGIC>MOL_PROPERTY
Grad RMS
SciTegic.value.DoubleValue
0.000000

@<SCITEGIC>MOL_PROPERTY
U
SciTegic.value.DoubleValue
47.080

@<SCITEGIC>MOL_PROPERTY
W
SciTegic.value.DoubleValue
-58.154

@<SCITEGIC>MOL_PROPERTY
W(PB)
SciTegic.value.DoubleValue
-60.053

@<SCITEGIC>MOL_PROPERTY
W(SA)
SciTegic.value.DoubleValue
1.899

@<SCITEGIC>MOL_PROPERTY
Valence
SciTegic.value.DoubleValue
1.943

@<SCITEGIC>MOL_PROPERTY
Coulomb
SciTegic.value.DoubleValue
44.572

@<SCITEGIC>MOL_PROPERTY
VdW
SciTegic.value.DoubleValue
0.565

@<SCITEGIC>MOL_PROPERTY
VdW6
SciTegic.value.DoubleValue
-4.575

@<SCITEGIC>MOL_PROPERTY
VdW12
SciTegic.value.DoubleValue
5.139

@<SCITEGIC>MOL_PROPERTY
Bond
SciTegic.value.DoubleValue
0.158

@<SCITEGIC>MOL_PROPERTY
Angle
SciTegic.value.DoubleValue
0.700

@<SCITEGIC>MOL_PROPERTY
Pdih
SciTegic.value.DoubleValue
1.085

@<SCITEGIC>MOL_PROPERTY
Idih
SciTegic.value.DoubleValue
0.000

@<SCITEGIC>MOL_PROPERTY
Tether
SciTegic.value.DoubleValue
0.000

@<TRIPOS>MOLECULE
guest-s11_confgen4.mol2 : confsearch ligand conformer 709
          20          19           1
SMALL
USER_CHARGES
 
@<TRIPOS>ATOM
       1    N1      18.374333   17.385578   21.246216 N.4        1 MOL1        -0.5919
       2    H1      17.746284   17.128734   20.477396 H          1 MOL1         0.3682
       3    H2      18.738408   16.511372   21.637888 H          1 MOL1         0.3682
       4    H3      17.796466   17.823801   21.969382 H          1 MOL1         0.3682
       5    C1      19.488475   18.302918   20.780022 C.3        1 MOL1         0.0252
       6    H4      19.033499   19.201374   20.354326 H          1 MOL1         0.0971
       7    H5      20.030139   17.786228   19.983008 H          1 MOL1         0.0971
       8    C2      20.477707   18.700185   21.893332 C.3        1 MOL1        -0.1369
       9    H6      20.919888   17.795244   22.330652 H          1 MOL1         0.0997
      10    H7      21.300364   19.259808   21.431092 H          1 MOL1         0.0997
      11    C3      19.818002   19.558819   23.001780 C.3        1 MOL1        -0.1329
      12    H8      18.972753   19.008624   23.435888 H          1 MOL1         0.0997
      13    H9      19.397701   20.473097   22.560293 H          1 MOL1         0.0997
      14    C4      20.787808   19.937034   24.147818 C.3        1 MOL1        -0.1305
      15    H10     20.217071   20.442396   24.939531 H          1 MOL1         0.0997
      16    H11     21.200614   19.025268   24.601846 H          1 MOL1         0.0997
      17    C5      21.941488   20.863064   23.699201 C.3        1 MOL1        -0.2320
      18    H12     21.555416   21.768447   23.213162 H          1 MOL1         0.1008
      19    H13     22.540379   21.176628   24.564045 H          1 MOL1         0.1008
      20    H14     22.616656   20.357118   22.998175 H          1 MOL1         0.1008
@<TRIPOS>BOND
    1     1     2    1
    2     1     3    1
    3     1     4    1
    4     1     5    1
    5     5     6    1
    6     5     7    1
    7     5     8    1
    8     8     9    1
    9     8    10    1
   10     8    11    1
   11    11    12    1
   12    11    13    1
   13    11    14    1
   14    14    15    1
   15    14    16    1
   16    14    17    1
   17    17    18    1
   18    17    19    1
   19    17    20    1
@<TRIPOS>SUBSTRUCTURE
       1 MOL1            1 RESIDUE      1      MOL     
@<SCITEGIC>MOL_PROPERTY
VConf Rank
SciTegic.value.IntegerValue
709

@<SCITEGIC>MOL_PROPERTY
Conf_Id
SciTegic.value.IntegerValue
24

@<SCITEGIC>MOL_PROPERTY
Delta U+W
SciTegic.value.DoubleValue
0.847

@<SCITEGIC>MOL_PROPERTY
U+W
SciTegic.value.DoubleValue
-10.931

@<SCITEGIC>MOL_PROPERTY
Grad RMS
SciTegic.value.DoubleValue
0.000000

@<SCITEGIC>MOL_PROPERTY
U
SciTegic.value.DoubleValue
47.080

@<SCITEGIC>MOL_PROPERTY
W
SciTegic.value.DoubleValue
-58.011

@<SCITEGIC>MOL_PROPERTY
W(PB)
SciTegic.value.DoubleValue
-59.914

@<SCITEGIC>MOL_PROPERTY
W(SA)
SciTegic.value.DoubleValue
1.903

@<SCITEGIC>MOL_PROPERTY
Valence
SciTegic.value.DoubleValue
1.943

@<SCITEGIC>MOL_PROPERTY
Coulomb
SciTegic.value.DoubleValue
44.572

@<SCITEGIC>MOL_PROPERTY
VdW
SciTegic.value.DoubleValue
0.565

@<SCITEGIC>MOL_PROPERTY
VdW6
SciTegic.value.DoubleValue
-4.575

@<SCITEGIC>MOL_PROPERTY
VdW12
SciTegic.value.DoubleValue
5.140

@<SCITEGIC>MOL_PROPERTY
Bond
SciTegic.value.DoubleValue
0.158

@<SCITEGIC>MOL_PROPERTY
Angle
SciTegic.value.DoubleValue
0.700

@<SCITEGIC>MOL_PROPERTY
Pdih
SciTegic.value.DoubleValue
1.085

@<SCITEGIC>MOL_PROPERTY
Idih
SciTegic.value.DoubleValue
0.000

@<SCITEGIC>MOL_PROPERTY
Tether
SciTegic.value.DoubleValue
0.000

@<TRIPOS>MOLECULE
guest-s11_confgen4.mol2 : confsearch ligand conformer 710
          20          19           1
SMALL
USER_CHARGES
 
@<TRIPOS>ATOM
       1    N1      20.779653   17.518206   24.556005 N.4        1 MOL1        -0.5919
       2    H1      21.698247   17.109138   24.756849 H          1 MOL1         0.3682
       3    H2      20.627477   18.260553   25.245921 H          1 MOL1         0.3682
       4    H3      20.083349   16.788984   24.739597 H          1 MOL1         0.3682
       5    C1      20.693324   18.038602   23.135419 C.3        1 MOL1         0.0252
       6    H4      20.893552   17.204771   22.457177 H          1 MOL1         0.0971
       7    H5      21.479968   18.786066   23.003242 H          1 MOL1         0.0971
       8    C2      19.324609   18.660999   22.800953 C.3        1 MOL1        -0.1369
       9    H6      18.538366   17.914914   22.976852 H          1 MOL1         0.0997
      10    H7      19.118531   19.492356   23.487124 H          1 MOL1         0.0997
      11    C3      19.230517   19.149168   21.333700 C.3        1 MOL1        -0.1329
      12    H8      18.229658   19.568468   21.161271 H          1 MOL1         0.0997
      13    H9      19.314268   18.282383   20.663505 H          1 MOL1         0.0997
      14    C4      20.296639   20.198637   20.927223 C.3        1 MOL1        -0.1305
      15    H10     21.302760   19.762390   20.991919 H          1 MOL1         0.0997
      16    H11     20.148152   20.457033   19.869365 H          1 MOL1         0.0997
      17    C5      20.236466   21.493555   21.768993 C.3        1 MOL1        -0.2320
      18    H12     20.945687   22.236773   21.382291 H          1 MOL1         0.1008
      19    H13     19.233581   21.938761   21.737559 H          1 MOL1         0.1008
      20    H14     20.496477   21.304532   22.817945 H          1 MOL1         0.1008
@<TRIPOS>BOND
    1     1     2    1
    2     1     3    1
    3     1     4    1
    4     1     5    1
    5     5     6    1
    6     5     7    1
    7     5     8    1
    8     8     9    1
    9     8    10    1
   10     8    11    1
   11    11    12    1
   12    11    13    1
   13    11    14    1
   14    14    15    1
   15    14    16    1
   16    14    17    1
   17    17    18    1
   18    17    19    1
   19    17    20    1
@<TRIPOS>SUBSTRUCTURE
       1 MOL1            1 RESIDUE      1      MOL     
@<SCITEGIC>MOL_PROPERTY
VConf Rank
SciTegic.value.IntegerValue
710

@<SCITEGIC>MOL_PROPERTY
Conf_Id
SciTegic.value.IntegerValue
64

@<SCITEGIC>MOL_PROPERTY
Delta U+W
SciTegic.value.DoubleValue
0.707

@<SCITEGIC>MOL_PROPERTY
U+W
SciTegic.value.DoubleValue
-11.070

@<SCITEGIC>MOL_PROPERTY
Grad RMS
SciTegic.value.DoubleValue
0.000000

@<SCITEGIC>MOL_PROPERTY
U
SciTegic.value.DoubleValue
47.077

@<SCITEGIC>MOL_PROPERTY
W
SciTegic.value.DoubleValue
-58.148

@<SCITEGIC>MOL_PROPERTY
W(PB)
SciTegic.value.DoubleValue
-60.054

@<SCITEGIC>MOL_PROPERTY
W(SA)
SciTegic.value.DoubleValue
1.906

@<SCITEGIC>MOL_PROPERTY
Valence
SciTegic.value.DoubleValue
2.039

@<SCITEGIC>MOL_PROPERTY
Coulomb
SciTegic.value.DoubleValue
44.655

@<SCITEGIC>MOL_PROPERTY
VdW
SciTegic.value.DoubleValue
0.383

@<SCITEGIC>MOL_PROPERTY
VdW6
SciTegic.value.DoubleValue
-4.912

@<SCITEGIC>MOL_PROPERTY
VdW12
SciTegic.value.DoubleValue
5.295

@<SCITEGIC>MOL_PROPERTY
Bond
SciTegic.value.DoubleValue
0.159

@<SCITEGIC>MOL_PROPERTY
Angle
SciTegic.value.DoubleValue
0.856

@<SCITEGIC>MOL_PROPERTY
Pdih
SciTegic.value.DoubleValue
1.024

@<SCITEGIC>MOL_PROPERTY
Idih
SciTegic.value.DoubleValue
0.000

@<SCITEGIC>MOL_PROPERTY
Tether
SciTegic.value.DoubleValue
0.000

@<TRIPOS>MOLECULE
guest-s11_confgen4.mol2 : confsearch ligand conformer 711
          20          19           1
SMALL
USER_CHARGES
 
@<TRIPOS>ATOM
       1    N1      22.524117   20.024415   23.594370 N.4        1 MOL1        -0.5919
       2    H1      22.903764   20.853064   23.125843 H          1 MOL1         0.3682
       3    H2      22.024150   20.351671   24.426932 H          1 MOL1         0.3682
       4    H3      23.325540   19.476635   23.924744 H          1 MOL1         0.3682
       5    C1      21.628921   19.215840   22.677224 C.3        1 MOL1         0.0252
       6    H4      21.287151   18.337235   23.230605 H          1 MOL1         0.0971
       7    H5      22.231149   18.876197   21.830262 H          1 MOL1         0.0971
       8    C2      20.413627   20.010347   22.162987 C.3        1 MOL1        -0.1369
       9    H6      19.813355   20.359589   23.012787 H          1 MOL1         0.0997
      10    H7      20.767108   20.911753   21.645031 H          1 MOL1         0.0997
      11    C3      19.529061   19.190317   21.190829 C.3        1 MOL1        -0.1329
      12    H8      20.111957   18.957182   20.288957 H          1 MOL1         0.0997
      13    H9      18.691985   19.818027   20.855349 H          1 MOL1         0.0997
      14    C4      18.968649   17.869410   21.777656 C.3        1 MOL1        -0.1305
      15    H10     18.376417   17.364837   21.001415 H          1 MOL1         0.0997
      16    H11     19.791166   17.183410   22.021880 H          1 MOL1         0.0997
      17    C5      18.079362   18.079305   23.024301 C.3        1 MOL1        -0.2320
      18    H12     17.260201   18.778465   22.811870 H          1 MOL1         0.1008
      19    H13     17.634215   17.128086   23.343566 H          1 MOL1         0.1008
      20    H14     18.657323   18.472846   23.869713 H          1 MOL1         0.1008
@<TRIPOS>BOND
    1     1     2    1
    2     1     3    1
    3     1     4    1
    4     1     5    1
    5     5     6    1
    6     5     7    1
    7     5     8    1
    8     8     9    1
    9     8    10    1
   10     8    11    1
   11    11    12    1
   12    11    13    1
   13    11    14    1
   14    14    15    1
   15    14    16    1
   16    14    17    1
   17    17    18    1
   18    17    19    1
   19    17    20    1
@<TRIPOS>SUBSTRUCTURE
       1 MOL1            1 RESIDUE      1      MOL     
@<SCITEGIC>MOL_PROPERTY
VConf Rank
SciTegic.value.IntegerValue
711

@<SCITEGIC>MOL_PROPERTY
Conf_Id
SciTegic.value.IntegerValue
22

@<SCITEGIC>MOL_PROPERTY
Delta U+W
SciTegic.value.DoubleValue
0.731

@<SCITEGIC>MOL_PROPERTY
U+W
SciTegic.value.DoubleValue
-11.047

@<SCITEGIC>MOL_PROPERTY
Grad RMS
SciTegic.value.DoubleValue
0.000000

@<SCITEGIC>MOL_PROPERTY
U
SciTegic.value.DoubleValue
47.078

@<SCITEGIC>MOL_PROPERTY
W
SciTegic.value.DoubleValue
-58.125

@<SCITEGIC>MOL_PROPERTY
W(PB)
SciTegic.value.DoubleValue
-60.031

@<SCITEGIC>MOL_PROPERTY
W(SA)
SciTegic.value.DoubleValue
1.906

@<SCITEGIC>MOL_PROPERTY
Valence
SciTegic.value.DoubleValue
2.039

@<SCITEGIC>MOL_PROPERTY
Coulomb
SciTegic.value.DoubleValue
44.655

@<SCITEGIC>MOL_PROPERTY
VdW
SciTegic.value.DoubleValue
0.383

@<SCITEGIC>MOL_PROPERTY
VdW6
SciTegic.value.DoubleValue
-4.913

@<SCITEGIC>MOL_PROPERTY
VdW12
SciTegic.value.DoubleValue
5.296

@<SCITEGIC>MOL_PROPERTY
Bond
SciTegic.value.DoubleValue
0.159

@<SCITEGIC>MOL_PROPERTY
Angle
SciTegic.value.DoubleValue
0.856

@<SCITEGIC>MOL_PROPERTY
Pdih
SciTegic.value.DoubleValue
1.024

@<SCITEGIC>MOL_PROPERTY
Idih
SciTegic.value.DoubleValue
0.000

@<SCITEGIC>MOL_PROPERTY
Tether
SciTegic.value.DoubleValue
0.000

@<TRIPOS>MOLECULE
guest-s11_confgen4.mol2 : confsearch ligand conformer 712
          20          19           1
SMALL
USER_CHARGES
 
@<TRIPOS>ATOM
       1    N1      22.497930   18.647758   21.143829 N.4        1 MOL1        -0.5919
       2    H1      22.187150   17.940864   20.469996 H          1 MOL1         0.3682
       3    H2      22.846458   19.445923   20.603669 H          1 MOL1         0.3682
       4    H3      23.302516   18.251420   21.640871 H          1 MOL1         0.3682
       5    C1      21.389185   19.048885   22.095875 C.3        1 MOL1         0.0252
       6    H4      21.795594   19.780276   22.799647 H          1 MOL1         0.0971
       7    H5      21.092238   18.157612   22.653299 H          1 MOL1         0.0971
       8    C2      20.163334   19.642940   21.379593 C.3        1 MOL1        -0.1369
       9    H6      20.497110   20.463046   20.730022 H          1 MOL1         0.0997
      10    H7      19.722618   18.884336   20.719233 H          1 MOL1         0.0997
      11    C3      19.077700   20.189652   22.341059 C.3        1 MOL1        -0.1329
      12    H8      18.302263   20.666685   21.725683 H          1 MOL1         0.0997
      13    H9      19.494444   20.991098   22.966645 H          1 MOL1         0.0997
      14    C4      18.392555   19.118687   23.229204 C.3        1 MOL1        -0.1305
      15    H10     17.374819   19.462976   23.461113 H          1 MOL1         0.0997
      16    H11     18.273129   18.179746   22.670753 H          1 MOL1         0.0997
      17    C5      19.119487   18.857072   24.569340 C.3        1 MOL1        -0.2320
      18    H12     20.114381   18.423220   24.425010 H          1 MOL1         0.1008
      19    H13     19.232720   19.785673   25.143694 H          1 MOL1         0.1008
      20    H14     18.542977   18.154744   25.185259 H          1 MOL1         0.1008
@<TRIPOS>BOND
    1     1     2    1
    2     1     3    1
    3     1     4    1
    4     1     5    1
    5     5     6    1
    6     5     7    1
    7     5     8    1
    8     8     9    1
    9     8    10    1
   10     8    11    1
   11    11    12    1
   12    11    13    1
   13    11    14    1
   14    14    15    1
   15    14    16    1
   16    14    17    1
   17    17    18    1
   18    17    19    1
   19    17    20    1
@<TRIPOS>SUBSTRUCTURE
       1 MOL1            1 RESIDUE      1      MOL     
@<SCITEGIC>MOL_PROPERTY
VConf Rank
SciTegic.value.IntegerValue
712

@<SCITEGIC>MOL_PROPERTY
Conf_Id
SciTegic.value.IntegerValue
61

@<SCITEGIC>MOL_PROPERTY
Delta U+W
SciTegic.value.DoubleValue
2.669

@<SCITEGIC>MOL_PROPERTY
U+W
SciTegic.value.DoubleValue
-9.108

@<SCITEGIC>MOL_PROPERTY
Grad RMS
SciTegic.value.DoubleValue
0.000000

@<SCITEGIC>MOL_PROPERTY
U
SciTegic.value.DoubleValue
48.916

@<SCITEGIC>MOL_PROPERTY
W
SciTegic.value.DoubleValue
-58.025

@<SCITEGIC>MOL_PROPERTY
W(PB)
SciTegic.value.DoubleValue
-59.935

@<SCITEGIC>MOL_PROPERTY
W(SA)
SciTegic.value.DoubleValue
1.911

@<SCITEGIC>MOL_PROPERTY
Valence
SciTegic.value.DoubleValue
3.785

@<SCITEGIC>MOL_PROPERTY
Coulomb
SciTegic.value.DoubleValue
44.716

@<SCITEGIC>MOL_PROPERTY
VdW
SciTegic.value.DoubleValue
0.415

@<SCITEGIC>MOL_PROPERTY
VdW6
SciTegic.value.DoubleValue
-4.836

@<SCITEGIC>MOL_PROPERTY
VdW12
SciTegic.value.DoubleValue
5.251

@<SCITEGIC>MOL_PROPERTY
Bond
SciTegic.value.DoubleValue
0.175

@<SCITEGIC>MOL_PROPERTY
Angle
SciTegic.value.DoubleValue
1.195

@<SCITEGIC>MOL_PROPERTY
Pdih
SciTegic.value.DoubleValue
2.415

@<SCITEGIC>MOL_PROPERTY
Idih
SciTegic.value.DoubleValue
0.000

@<SCITEGIC>MOL_PROPERTY
Tether
SciTegic.value.DoubleValue
0.000

@<TRIPOS>MOLECULE
guest-s11_confgen4.mol2 : confsearch ligand conformer 713
          20          19           1
SMALL
USER_CHARGES
 
@<TRIPOS>ATOM
       1    N1      19.159703   20.232366   24.131156 N.4        1 MOL1        -0.5919
       2    H1      19.109143   20.349332   25.148704 H          1 MOL1         0.3682
       3    H2      18.445979   20.846376   23.726320 H          1 MOL1         0.3682
       4    H3      18.881809   19.269365   23.925169 H          1 MOL1         0.3682
       5    C1      20.543452   20.549914   23.597328 C.3        1 MOL1         0.0252
       6    H4      21.268603   19.907391   24.103942 H          1 MOL1         0.0971
       7    H5      20.760193   21.585832   23.872024 H          1 MOL1         0.0971
       8    C2      20.686194   20.397045   22.068364 C.3        1 MOL1        -0.1369
       9    H6      19.805119   20.815788   21.564205 H          1 MOL1         0.0997
      10    H7      21.536635   21.014209   21.749414 H          1 MOL1         0.0997
      11    C3      20.945909   18.946358   21.586882 C.3        1 MOL1        -0.1329
      12    H8      21.862840   18.563530   22.056081 H          1 MOL1         0.0997
      13    H9      21.145140   18.975464   20.506632 H          1 MOL1         0.0997
      14    C4      19.781373   17.963930   21.853342 C.3        1 MOL1        -0.1305
      15    H10     19.663843   17.803801   22.932414 H          1 MOL1         0.0997
      16    H11     18.839563   18.390693   21.480772 H          1 MOL1         0.0997
      17    C5      20.024580   16.597495   21.177529 C.3        1 MOL1        -0.2320
      18    H12     19.194573   15.909407   21.384103 H          1 MOL1         0.1008
      19    H13     20.109127   16.704225   20.088179 H          1 MOL1         0.1008
      20    H14     20.947518   16.132509   21.547993 H          1 MOL1         0.1008
@<TRIPOS>BOND
    1     1     2    1
    2     1     3    1
    3     1     4    1
    4     1     5    1
    5     5     6    1
    6     5     7    1
    7     5     8    1
    8     8     9    1
    9     8    10    1
   10     8    11    1
   11    11    12    1
   12    11    13    1
   13    11    14    1
   14    14    15    1
   15    14    16    1
   16    14    17    1
   17    17    18    1
   18    17    19    1
   19    17    20    1
@<TRIPOS>SUBSTRUCTURE
       1 MOL1            1 RESIDUE      1      MOL     
@<SCITEGIC>MOL_PROPERTY
VConf Rank
SciTegic.value.IntegerValue
713

@<SCITEGIC>MOL_PROPERTY
Conf_Id
SciTegic.value.IntegerValue
69

@<SCITEGIC>MOL_PROPERTY
Delta U+W
SciTegic.value.DoubleValue
2.811

@<SCITEGIC>MOL_PROPERTY
U+W
SciTegic.value.DoubleValue
-8.967

@<SCITEGIC>MOL_PROPERTY
Grad RMS
SciTegic.value.DoubleValue
0.000000

@<SCITEGIC>MOL_PROPERTY
U
SciTegic.value.DoubleValue
49.216

@<SCITEGIC>MOL_PROPERTY
W
SciTegic.value.DoubleValue
-58.183

@<SCITEGIC>MOL_PROPERTY
W(PB)
SciTegic.value.DoubleValue
-60.064

@<SCITEGIC>MOL_PROPERTY
W(SA)
SciTegic.value.DoubleValue
1.881

@<SCITEGIC>MOL_PROPERTY
Valence
SciTegic.value.DoubleValue
2.929

@<SCITEGIC>MOL_PROPERTY
Coulomb
SciTegic.value.DoubleValue
46.006

@<SCITEGIC>MOL_PROPERTY
VdW
SciTegic.value.DoubleValue
0.281

@<SCITEGIC>MOL_PROPERTY
VdW6
SciTegic.value.DoubleValue
-4.909

@<SCITEGIC>MOL_PROPERTY
VdW12
SciTegic.value.DoubleValue
5.190

@<SCITEGIC>MOL_PROPERTY
Bond
SciTegic.value.DoubleValue
0.156

@<SCITEGIC>MOL_PROPERTY
Angle
SciTegic.value.DoubleValue
0.974

@<SCITEGIC>MOL_PROPERTY
Pdih
SciTegic.value.DoubleValue
1.799

@<SCITEGIC>MOL_PROPERTY
Idih
SciTegic.value.DoubleValue
0.000

@<SCITEGIC>MOL_PROPERTY
Tether
SciTegic.value.DoubleValue
0.000

@<TRIPOS>MOLECULE
guest-s11_confgen4.mol2 : confsearch ligand conformer 714
          20          19           1
SMALL
USER_CHARGES
 
@<TRIPOS>ATOM
       1    N1      19.224538   20.460457   20.732341 N.4        1 MOL1        -0.5919
       2    H1      20.157708   20.633817   21.114662 H          1 MOL1         0.3682
       3    H2      19.348381   19.954164   19.849939 H          1 MOL1         0.3682
       4    H3      18.821296   21.373374   20.496500 H          1 MOL1         0.3682
       5    C1      18.347513   19.692875   21.703018 C.3        1 MOL1         0.0252
       6    H4      17.374816   19.565388   21.220146 H          1 MOL1         0.0971
       7    H5      18.202481   20.302467   22.598955 H          1 MOL1         0.0971
       8    C2      18.896796   18.305460   22.096518 C.3        1 MOL1        -0.1369
       9    H6      18.049798   17.696342   22.439214 H          1 MOL1         0.0997
      10    H7      19.296258   17.793627   21.210927 H          1 MOL1         0.0997
      11    C3      19.953996   18.328407   23.230351 C.3        1 MOL1        -0.1329
      12    H8      20.184008   17.289336   23.504036 H          1 MOL1         0.0997
      13    H9      19.519033   18.791038   24.127148 H          1 MOL1         0.0997
      14    C4      21.271414   19.051475   22.864434 C.3        1 MOL1        -0.1305
      15    H10     21.656467   18.666476   21.909734 H          1 MOL1         0.0997
      16    H11     21.087394   20.125235   22.733950 H          1 MOL1         0.0997
      17    C5      22.344289   18.866340   23.958821 C.3        1 MOL1        -0.2320
      18    H12     22.590197   17.805303   24.096485 H          1 MOL1         0.1008
      19    H13     23.268797   19.393002   23.688705 H          1 MOL1         0.1008
      20    H14     21.998894   19.264802   24.921734 H          1 MOL1         0.1008
@<TRIPOS>BOND
    1     1     2    1
    2     1     3    1
    3     1     4    1
    4     1     5    1
    5     5     6    1
    6     5     7    1
    7     5     8    1
    8     8     9    1
    9     8    10    1
   10     8    11    1
   11    11    12    1
   12    11    13    1
   13    11    14    1
   14    14    15    1
   15    14    16    1
   16    14    17    1
   17    17    18    1
   18    17    19    1
   19    17    20    1
@<TRIPOS>SUBSTRUCTURE
       1 MOL1            1 RESIDUE      1      MOL     
@<SCITEGIC>MOL_PROPERTY
VConf Rank
SciTegic.value.IntegerValue
714

@<SCITEGIC>MOL_PROPERTY
Conf_Id
SciTegic.value.IntegerValue
26

@<SCITEGIC>MOL_PROPERTY
Delta U+W
SciTegic.value.DoubleValue
2.809

@<SCITEGIC>MOL_PROPERTY
U+W
SciTegic.value.DoubleValue
-8.969

@<SCITEGIC>MOL_PROPERTY
Grad RMS
SciTegic.value.DoubleValue
0.000000

@<SCITEGIC>MOL_PROPERTY
U
SciTegic.value.DoubleValue
49.216

@<SCITEGIC>MOL_PROPERTY
W
SciTegic.value.DoubleValue
-58.185

@<SCITEGIC>MOL_PROPERTY
W(PB)
SciTegic.value.DoubleValue
-60.088

@<SCITEGIC>MOL_PROPERTY
W(SA)
SciTegic.value.DoubleValue
1.903

@<SCITEGIC>MOL_PROPERTY
Valence
SciTegic.value.DoubleValue
2.929

@<SCITEGIC>MOL_PROPERTY
Coulomb
SciTegic.value.DoubleValue
46.006

@<SCITEGIC>MOL_PROPERTY
VdW
SciTegic.value.DoubleValue
0.281

@<SCITEGIC>MOL_PROPERTY
VdW6
SciTegic.value.DoubleValue
-4.909

@<SCITEGIC>MOL_PROPERTY
VdW12
SciTegic.value.DoubleValue
5.190

@<SCITEGIC>MOL_PROPERTY
Bond
SciTegic.value.DoubleValue
0.156

@<SCITEGIC>MOL_PROPERTY
Angle
SciTegic.value.DoubleValue
0.974

@<SCITEGIC>MOL_PROPERTY
Pdih
SciTegic.value.DoubleValue
1.799

@<SCITEGIC>MOL_PROPERTY
Idih
SciTegic.value.DoubleValue
0.000

@<SCITEGIC>MOL_PROPERTY
Tether
SciTegic.value.DoubleValue
0.000

@<TRIPOS>MOLECULE
guest-s11_confgen4.mol2 : confsearch ligand conformer 715
          20          19           1
SMALL
USER_CHARGES
 
@<TRIPOS>ATOM
       1    N1      20.924914   17.319677   21.126762 N.4        1 MOL1        -0.5919
       2    H1      20.777304   16.965034   22.076171 H          1 MOL1         0.3682
       3    H2      20.243449   16.853337   20.519991 H          1 MOL1         0.3682
       4    H3      21.854174   17.004665   20.829185 H          1 MOL1         0.3682
       5    C1      20.794673   18.829059   21.065085 C.3        1 MOL1         0.0252
       6    H4      20.994065   19.138729   20.035592 H          1 MOL1         0.0971
       7    H5      21.567021   19.263342   21.705248 H          1 MOL1         0.0971
       8    C2      19.408627   19.349541   21.496673 C.3        1 MOL1        -0.1369
       9    H6      19.377259   20.436628   21.349057 H          1 MOL1         0.0997
      10    H7      18.644339   18.934322   20.826528 H          1 MOL1         0.0997
      11    C3      19.037685   19.012498   22.964937 C.3        1 MOL1        -0.1329
      12    H8      18.910319   17.926466   23.067501 H          1 MOL1         0.0997
      13    H9      18.054945   19.449076   23.190372 H          1 MOL1         0.0997
      14    C4      20.060854   19.500091   24.022487 C.3        1 MOL1        -0.1305
      15    H10     19.711260   19.190584   25.017394 H          1 MOL1         0.0997
      16    H11     21.028144   19.001206   23.874298 H          1 MOL1         0.0997
      17    C5      20.261675   21.032575   24.020188 C.3        1 MOL1        -0.2320
      18    H12     19.305722   21.556211   24.150277 H          1 MOL1         0.1008
      19    H13     20.924195   21.334811   24.841532 H          1 MOL1         0.1008
      20    H14     20.718248   21.377541   23.084164 H          1 MOL1         0.1008
@<TRIPOS>BOND
    1     1     2    1
    2     1     3    1
    3     1     4    1
    4     1     5    1
    5     5     6    1
    6     5     7    1
    7     5     8    1
    8     8     9    1
    9     8    10    1
   10     8    11    1
   11    11    12    1
   12    11    13    1
   13    11    14    1
   14    14    15    1
   15    14    16    1
   16    14    17    1
   17    17    18    1
   18    17    19    1
   19    17    20    1
@<TRIPOS>SUBSTRUCTURE
       1 MOL1            1 RESIDUE      1      MOL     
@<SCITEGIC>MOL_PROPERTY
VConf Rank
SciTegic.value.IntegerValue
715

@<SCITEGIC>MOL_PROPERTY
Conf_Id
SciTegic.value.IntegerValue
2

@<SCITEGIC>MOL_PROPERTY
Delta U+W
SciTegic.value.DoubleValue
0.994

@<SCITEGIC>MOL_PROPERTY
U+W
SciTegic.value.DoubleValue
-10.784

@<SCITEGIC>MOL_PROPERTY
Grad RMS
SciTegic.value.DoubleValue
0.000000

@<SCITEGIC>MOL_PROPERTY
U
SciTegic.value.DoubleValue
47.562

@<SCITEGIC>MOL_PROPERTY
W
SciTegic.value.DoubleValue
-58.346

@<SCITEGIC>MOL_PROPERTY
W(PB)
SciTegic.value.DoubleValue
-60.221

@<SCITEGIC>MOL_PROPERTY
W(SA)
SciTegic.value.DoubleValue
1.875

@<SCITEGIC>MOL_PROPERTY
Valence
SciTegic.value.DoubleValue
2.149

@<SCITEGIC>MOL_PROPERTY
Coulomb
SciTegic.value.DoubleValue
45.034

@<SCITEGIC>MOL_PROPERTY
VdW
SciTegic.value.DoubleValue
0.378

@<SCITEGIC>MOL_PROPERTY
VdW6
SciTegic.value.DoubleValue
-5.599

@<SCITEGIC>MOL_PROPERTY
VdW12
SciTegic.value.DoubleValue
5.977

@<SCITEGIC>MOL_PROPERTY
Bond
SciTegic.value.DoubleValue
0.185

@<SCITEGIC>MOL_PROPERTY
Angle
SciTegic.value.DoubleValue
0.935

@<SCITEGIC>MOL_PROPERTY
Pdih
SciTegic.value.DoubleValue
1.028

@<SCITEGIC>MOL_PROPERTY
Idih
SciTegic.value.DoubleValue
0.000

@<SCITEGIC>MOL_PROPERTY
Tether
SciTegic.value.DoubleValue
0.000

@<TRIPOS>MOLECULE
guest-s11_confgen4.mol2 : confsearch ligand conformer 716
          20          19           1
SMALL
USER_CHARGES
 
@<TRIPOS>ATOM
       1    N1      19.892792   21.326671   21.602941 N.4        1 MOL1        -0.5919
       2    H1      20.625981   21.685897   20.983725 H          1 MOL1         0.3682
       3    H2      19.296323   20.712296   21.041061 H          1 MOL1         0.3682
       4    H3      19.319017   22.129003   21.882860 H          1 MOL1         0.3682
       5    C1      20.472570   20.602321   22.802179 C.3        1 MOL1         0.0252
       6    H4      19.643571   20.275280   23.435217 H          1 MOL1         0.0971
       7    H5      21.068945   21.321970   23.369585 H          1 MOL1         0.0971
       8    C2      21.351034   19.390921   22.429220 C.3        1 MOL1        -0.1369
       9    H6      22.198776   19.735216   21.822233 H          1 MOL1         0.0997
      10    H7      21.788659   18.975641   23.346040 H          1 MOL1         0.0997
      11    C3      20.593671   18.275207   21.662032 C.3        1 MOL1        -0.1329
      12    H8      21.287175   17.444894   21.470122 H          1 MOL1         0.0997
      13    H9      20.298953   18.650155   20.672708 H          1 MOL1         0.0997
      14    C4      19.337413   17.726220   22.385541 C.3        1 MOL1        -0.1305
      15    H10     18.587877   18.520659   22.501986 H          1 MOL1         0.0997
      16    H11     18.870865   16.962707   21.747396 H          1 MOL1         0.0997
      17    C5      19.648436   17.100217   23.764027 C.3        1 MOL1        -0.2320
      18    H12     20.011556   17.852455   24.475282 H          1 MOL1         0.1008
      19    H13     18.745051   16.648559   24.193896 H          1 MOL1         0.1008
      20    H14     20.408547   16.312984   23.677677 H          1 MOL1         0.1008
@<TRIPOS>BOND
    1     1     2    1
    2     1     3    1
    3     1     4    1
    4     1     5    1
    5     5     6    1
    6     5     7    1
    7     5     8    1
    8     8     9    1
    9     8    10    1
   10     8    11    1
   11    11    12    1
   12    11    13    1
   13    11    14    1
   14    14    15    1
   15    14    16    1
   16    14    17    1
   17    17    18    1
   18    17    19    1
   19    17    20    1
@<TRIPOS>SUBSTRUCTURE
       1 MOL1            1 RESIDUE      1      MOL     
@<SCITEGIC>MOL_PROPERTY
VConf Rank
SciTegic.value.IntegerValue
716

@<SCITEGIC>MOL_PROPERTY
Conf_Id
SciTegic.value.IntegerValue
1

@<SCITEGIC>MOL_PROPERTY
Delta U+W
SciTegic.value.DoubleValue
1.032

@<SCITEGIC>MOL_PROPERTY
U+W
SciTegic.value.DoubleValue
-10.746

@<SCITEGIC>MOL_PROPERTY
Grad RMS
SciTegic.value.DoubleValue
0.000000

@<SCITEGIC>MOL_PROPERTY
U
SciTegic.value.DoubleValue
47.562

@<SCITEGIC>MOL_PROPERTY
W
SciTegic.value.DoubleValue
-58.308

@<SCITEGIC>MOL_PROPERTY
W(PB)
SciTegic.value.DoubleValue
-60.184

@<SCITEGIC>MOL_PROPERTY
W(SA)
SciTegic.value.DoubleValue
1.877

@<SCITEGIC>MOL_PROPERTY
Valence
SciTegic.value.DoubleValue
2.149

@<SCITEGIC>MOL_PROPERTY
Coulomb
SciTegic.value.DoubleValue
45.035

@<SCITEGIC>MOL_PROPERTY
VdW
SciTegic.value.DoubleValue
0.378

@<SCITEGIC>MOL_PROPERTY
VdW6
SciTegic.value.DoubleValue
-5.599

@<SCITEGIC>MOL_PROPERTY
VdW12
SciTegic.value.DoubleValue
5.978

@<SCITEGIC>MOL_PROPERTY
Bond
SciTegic.value.DoubleValue
0.185

@<SCITEGIC>MOL_PROPERTY
Angle
SciTegic.value.DoubleValue
0.935

@<SCITEGIC>MOL_PROPERTY
Pdih
SciTegic.value.DoubleValue
1.028

@<SCITEGIC>MOL_PROPERTY
Idih
SciTegic.value.DoubleValue
0.000

@<SCITEGIC>MOL_PROPERTY
Tether
SciTegic.value.DoubleValue
0.000

@<TRIPOS>MOLECULE
guest-s11_confgen4.mol2 : confsearch ligand conformer 717
          20          19           1
SMALL
USER_CHARGES
 
@<TRIPOS>ATOM
       1    N1      22.496663   18.940815   23.045422 N.4        1 MOL1        -0.5919
       2    H1      22.846358   18.050444   23.412903 H          1 MOL1         0.3682
       3    H2      22.410701   18.836623   22.030316 H          1 MOL1         0.3682
       4    H3      23.227313   19.640224   23.213719 H          1 MOL1         0.3682
       5    C1      21.179907   19.337177   23.684802 C.3        1 MOL1         0.0252
       6    H4      20.883410   20.303012   23.272768 H          1 MOL1         0.0971
       7    H5      21.361272   19.469744   24.754875 H          1 MOL1         0.0971
       8    C2      20.053712   18.300149   23.487386 C.3        1 MOL1        -0.1369
       9    H6      20.394772   17.343574   23.905073 H          1 MOL1         0.0997
      10    H7      19.180183   18.593951   24.084249 H          1 MOL1         0.0997
      11    C3      19.625318   18.079196   22.011587 C.3        1 MOL1        -0.1329
      12    H8      19.165434   17.083786   21.940256 H          1 MOL1         0.0997
      13    H9      20.503758   18.042629   21.354526 H          1 MOL1         0.0997
      14    C4      18.597798   19.103962   21.465609 C.3        1 MOL1        -0.1305
      15    H10     18.304520   18.791582   20.453505 H          1 MOL1         0.0997
      16    H11     17.681068   19.067992   22.070666 H          1 MOL1         0.0997
      17    C5      19.112951   20.558680   21.399697 C.3        1 MOL1        -0.2320
      18    H12     20.088229   20.614414   20.899211 H          1 MOL1         0.1008
      19    H13     18.410993   21.187096   20.836425 H          1 MOL1         0.1008
      20    H14     19.204929   20.995711   22.400995 H          1 MOL1         0.1008
@<TRIPOS>BOND
    1     1     2    1
    2     1     3    1
    3     1     4    1
    4     1     5    1
    5     5     6    1
    6     5     7    1
    7     5     8    1
    8     8     9    1
    9     8    10    1
   10     8    11    1
   11    11    12    1
   12    11    13    1
   13    11    14    1
   14    14    15    1
   15    14    16    1
   16    14    17    1
   17    17    18    1
   18    17    19    1
   19    17    20    1
@<TRIPOS>SUBSTRUCTURE
       1 MOL1            1 RESIDUE      1      MOL     
@<SCITEGIC>MOL_PROPERTY
VConf Rank
SciTegic.value.IntegerValue
717

@<SCITEGIC>MOL_PROPERTY
Conf_Id
SciTegic.value.IntegerValue
80

@<SCITEGIC>MOL_PROPERTY
Delta U+W
SciTegic.value.DoubleValue
2.920

@<SCITEGIC>MOL_PROPERTY
U+W
SciTegic.value.DoubleValue
-8.857

@<SCITEGIC>MOL_PROPERTY
Grad RMS
SciTegic.value.DoubleValue
0.000000

@<SCITEGIC>MOL_PROPERTY
U
SciTegic.value.DoubleValue
49.434

@<SCITEGIC>MOL_PROPERTY
W
SciTegic.value.DoubleValue
-58.292

@<SCITEGIC>MOL_PROPERTY
W(PB)
SciTegic.value.DoubleValue
-60.170

@<SCITEGIC>MOL_PROPERTY
W(SA)
SciTegic.value.DoubleValue
1.879

@<SCITEGIC>MOL_PROPERTY
Valence
SciTegic.value.DoubleValue
3.798

@<SCITEGIC>MOL_PROPERTY
Coulomb
SciTegic.value.DoubleValue
45.253

@<SCITEGIC>MOL_PROPERTY
VdW
SciTegic.value.DoubleValue
0.384

@<SCITEGIC>MOL_PROPERTY
VdW6
SciTegic.value.DoubleValue
-5.595

@<SCITEGIC>MOL_PROPERTY
VdW12
SciTegic.value.DoubleValue
5.979

@<SCITEGIC>MOL_PROPERTY
Bond
SciTegic.value.DoubleValue
0.198

@<SCITEGIC>MOL_PROPERTY
Angle
SciTegic.value.DoubleValue
1.368

@<SCITEGIC>MOL_PROPERTY
Pdih
SciTegic.value.DoubleValue
2.231

@<SCITEGIC>MOL_PROPERTY
Idih
SciTegic.value.DoubleValue
0.000

@<SCITEGIC>MOL_PROPERTY
Tether
SciTegic.value.DoubleValue
0.000

@<TRIPOS>MOLECULE
guest-s11_confgen4.mol2 : confsearch ligand conformer 718
          20          19           1
SMALL
USER_CHARGES
 
@<TRIPOS>ATOM
       1    N1      22.416895   18.909094   21.821565 N.4        1 MOL1        -0.5919
       2    H1      23.009172   18.260541   22.349464 H          1 MOL1         0.3682
       3    H2      22.917737   19.132066   20.955086 H          1 MOL1         0.3682
       4    H3      22.358010   19.775534   22.364245 H          1 MOL1         0.3682
       5    C1      21.045809   18.323322   21.544519 C.3        1 MOL1         0.0252
       6    H4      21.188316   17.430716   20.929320 H          1 MOL1         0.0971
       7    H5      20.482594   19.049519   20.956349 H          1 MOL1         0.0971
       8    C2      20.262494   17.939948   22.818162 C.3        1 MOL1        -0.1369
       9    H6      19.345068   17.407593   22.534355 H          1 MOL1         0.0997
      10    H7      20.865700   17.217850   23.384321 H          1 MOL1         0.0997
      11    C3      19.906313   19.132902   23.745697 C.3        1 MOL1        -0.1329
      12    H8      20.754528   19.824311   23.830581 H          1 MOL1         0.0997
      13    H9      19.749999   18.736481   24.758535 H          1 MOL1         0.0997
      14    C4      18.625297   19.912093   23.350853 C.3        1 MOL1        -0.1305
      15    H10     17.760830   19.233581   23.360833 H          1 MOL1         0.0997
      16    H11     18.427559   20.665159   24.126571 H          1 MOL1         0.0997
      17    C5      18.702332   20.625742   21.983118 C.3        1 MOL1        -0.2320
      18    H12     18.671310   19.907456   21.155377 H          1 MOL1         0.1008
      19    H13     17.846627   21.301488   21.856374 H          1 MOL1         0.1008
      20    H14     19.617938   21.224851   21.896552 H          1 MOL1         0.1008
@<TRIPOS>BOND
    1     1     2    1
    2     1     3    1
    3     1     4    1
    4     1     5    1
    5     5     6    1
    6     5     7    1
    7     5     8    1
    8     8     9    1
    9     8    10    1
   10     8    11    1
   11    11    12    1
   12    11    13    1
   13    11    14    1
   14    14    15    1
   15    14    16    1
   16    14    17    1
   17    17    18    1
   18    17    19    1
   19    17    20    1
@<TRIPOS>SUBSTRUCTURE
       1 MOL1            1 RESIDUE      1      MOL     
@<SCITEGIC>MOL_PROPERTY
VConf Rank
SciTegic.value.IntegerValue
718

@<SCITEGIC>MOL_PROPERTY
Conf_Id
SciTegic.value.IntegerValue
65

@<SCITEGIC>MOL_PROPERTY
Delta U+W
SciTegic.value.DoubleValue
2.949

@<SCITEGIC>MOL_PROPERTY
U+W
SciTegic.value.DoubleValue
-8.829

@<SCITEGIC>MOL_PROPERTY
Grad RMS
SciTegic.value.DoubleValue
0.000000

@<SCITEGIC>MOL_PROPERTY
U
SciTegic.value.DoubleValue
49.435

@<SCITEGIC>MOL_PROPERTY
W
SciTegic.value.DoubleValue
-58.263

@<SCITEGIC>MOL_PROPERTY
W(PB)
SciTegic.value.DoubleValue
-60.125

@<SCITEGIC>MOL_PROPERTY
W(SA)
SciTegic.value.DoubleValue
1.862

@<SCITEGIC>MOL_PROPERTY
Valence
SciTegic.value.DoubleValue
3.797

@<SCITEGIC>MOL_PROPERTY
Coulomb
SciTegic.value.DoubleValue
45.253

@<SCITEGIC>MOL_PROPERTY
VdW
SciTegic.value.DoubleValue
0.384

@<SCITEGIC>MOL_PROPERTY
VdW6
SciTegic.value.DoubleValue
-5.596

@<SCITEGIC>MOL_PROPERTY
VdW12
SciTegic.value.DoubleValue
5.980

@<SCITEGIC>MOL_PROPERTY
Bond
SciTegic.value.DoubleValue
0.198

@<SCITEGIC>MOL_PROPERTY
Angle
SciTegic.value.DoubleValue
1.369

@<SCITEGIC>MOL_PROPERTY
Pdih
SciTegic.value.DoubleValue
2.230

@<SCITEGIC>MOL_PROPERTY
Idih
SciTegic.value.DoubleValue
0.000

@<SCITEGIC>MOL_PROPERTY
Tether
SciTegic.value.DoubleValue
0.000

@<TRIPOS>MOLECULE
guest-s11_confgen4.mol2 : confsearch ligand conformer 719
          20          19           1
SMALL
USER_CHARGES
 
@<TRIPOS>ATOM
       1    N1      18.318558   19.976476   22.106227 N.4        1 MOL1        -0.5919
       2    H1      17.407371   19.641158   21.776102 H          1 MOL1         0.3682
       3    H2      18.536958   19.469033   22.969087 H          1 MOL1         0.3682
       4    H3      18.200634   20.963817   22.354537 H          1 MOL1         0.3682
       5    C1      19.401748   19.784464   21.062490 C.3        1 MOL1         0.0252
       6    H4      19.098989   20.353800   20.179477 H          1 MOL1         0.0971
       7    H5      19.440289   18.727087   20.787409 H          1 MOL1         0.0971
       8    C2      20.797852   20.259716   21.513533 C.3        1 MOL1        -0.1369
       9    H6      21.385767   20.471845   20.610666 H          1 MOL1         0.0997
      10    H7      20.711126   21.216921   22.044612 H          1 MOL1         0.0997
      11    C3      21.597714   19.242337   22.370866 C.3        1 MOL1        -0.1329
      12    H8      22.582965   19.685554   22.571778 H          1 MOL1         0.0997
      13    H9      21.798705   18.334942   21.784605 H          1 MOL1         0.0997
      14    C4      20.955079   18.865819   23.730195 C.3        1 MOL1        -0.1305
      15    H10     21.756711   18.723028   24.468608 H          1 MOL1         0.0997
      16    H11     20.347543   19.697475   24.111654 H          1 MOL1         0.0997
      17    C5      20.129337   17.558751   23.670692 C.3        1 MOL1        -0.2320
      18    H12     19.347926   17.590732   22.903901 H          1 MOL1         0.1008
      19    H13     20.777898   16.702611   23.443282 H          1 MOL1         0.1008
      20    H14     19.648256   17.360652   24.637387 H          1 MOL1         0.1008
@<TRIPOS>BOND
    1     1     2    1
    2     1     3    1
    3     1     4    1
    4     1     5    1
    5     5     6    1
    6     5     7    1
    7     5     8    1
    8     8     9    1
    9     8    10    1
   10     8    11    1
   11    11    12    1
   12    11    13    1
   13    11    14    1
   14    14    15    1
   15    14    16    1
   16    14    17    1
   17    17    18    1
   18    17    19    1
   19    17    20    1
@<TRIPOS>SUBSTRUCTURE
       1 MOL1            1 RESIDUE      1      MOL     
@<SCITEGIC>MOL_PROPERTY
VConf Rank
SciTegic.value.IntegerValue
719

@<SCITEGIC>MOL_PROPERTY
Conf_Id
SciTegic.value.IntegerValue
77

@<SCITEGIC>MOL_PROPERTY
Delta U+W
SciTegic.value.DoubleValue
5.366

@<SCITEGIC>MOL_PROPERTY
U+W
SciTegic.value.DoubleValue
-6.412

@<SCITEGIC>MOL_PROPERTY
Grad RMS
SciTegic.value.DoubleValue
0.000000

@<SCITEGIC>MOL_PROPERTY
U
SciTegic.value.DoubleValue
51.542

@<SCITEGIC>MOL_PROPERTY
W
SciTegic.value.DoubleValue
-57.954

@<SCITEGIC>MOL_PROPERTY
W(PB)
SciTegic.value.DoubleValue
-59.811

@<SCITEGIC>MOL_PROPERTY
W(SA)
SciTegic.value.DoubleValue
1.857

@<SCITEGIC>MOL_PROPERTY
Valence
SciTegic.value.DoubleValue
5.347

@<SCITEGIC>MOL_PROPERTY
Coulomb
SciTegic.value.DoubleValue
45.870

@<SCITEGIC>MOL_PROPERTY
VdW
SciTegic.value.DoubleValue
0.325

@<SCITEGIC>MOL_PROPERTY
VdW6
SciTegic.value.DoubleValue
-6.161

@<SCITEGIC>MOL_PROPERTY
VdW12
SciTegic.value.DoubleValue
6.486

@<SCITEGIC>MOL_PROPERTY
Bond
SciTegic.value.DoubleValue
0.201

@<SCITEGIC>MOL_PROPERTY
Angle
SciTegic.value.DoubleValue
1.484

@<SCITEGIC>MOL_PROPERTY
Pdih
SciTegic.value.DoubleValue
3.662

@<SCITEGIC>MOL_PROPERTY
Idih
SciTegic.value.DoubleValue
0.000

@<SCITEGIC>MOL_PROPERTY
Tether
SciTegic.value.DoubleValue
0.000

@<TRIPOS>MOLECULE
guest-s11_confgen4.mol2 : confsearch ligand conformer 720
          20          19           1
SMALL
USER_CHARGES
 
@<TRIPOS>ATOM
       1    N1      21.948067   19.019845   21.530762 N.4        1 MOL1        -0.5919
       2    H1      22.766848   19.093246   22.142822 H          1 MOL1         0.3682
       3    H2      21.459148   18.154087   21.778044 H          1 MOL1         0.3682
       4    H3      22.300023   18.910099   20.573806 H          1 MOL1         0.3682
       5    C1      21.037948   20.225696   21.661788 C.3        1 MOL1         0.0252
       6    H4      20.219729   20.127299   20.943430 H          1 MOL1         0.0971
       7    H5      21.628574   21.103230   21.384995 H          1 MOL1         0.0971
       8    C2      20.468104   20.429472   23.080295 C.3        1 MOL1        -0.1369
       9    H6      21.254465   20.251936   23.825899 H          1 MOL1         0.0997
      10    H7      20.195141   21.488307   23.181150 H          1 MOL1         0.0997
      11    C3      19.211054   19.582698   23.415947 C.3        1 MOL1        -0.1329
      12    H8      18.382567   19.862305   22.750444 H          1 MOL1         0.0997
      13    H9      18.884198   19.866700   24.425915 H          1 MOL1         0.0997
      14    C4      19.416685   18.046567   23.392731 C.3        1 MOL1        -0.1305
      15    H10     20.454569   17.793773   23.647983 H          1 MOL1         0.0997
      16    H11     18.800475   17.599043   24.185364 H          1 MOL1         0.0997
      17    C5      19.003110   17.398323   22.050138 C.3        1 MOL1        -0.2320
      18    H12     19.216940   16.321572   22.058261 H          1 MOL1         0.1008
      19    H13     17.925454   17.519444   21.878941 H          1 MOL1         0.1008
      20    H14     19.522774   17.840226   21.193245 H          1 MOL1         0.1008
@<TRIPOS>BOND
    1     1     2    1
    2     1     3    1
    3     1     4    1
    4     1     5    1
    5     5     6    1
    6     5     7    1
    7     5     8    1
    8     8     9    1
    9     8    10    1
   10     8    11    1
   11    11    12    1
   12    11    13    1
   13    11    14    1
   14    14    15    1
   15    14    16    1
   16    14    17    1
   17    17    18    1
   18    17    19    1
   19    17    20    1
@<TRIPOS>SUBSTRUCTURE
       1 MOL1            1 RESIDUE      1      MOL     
@<SCITEGIC>MOL_PROPERTY
VConf Rank
SciTegic.value.IntegerValue
720

@<SCITEGIC>MOL_PROPERTY
Conf_Id
SciTegic.value.IntegerValue
67

@<SCITEGIC>MOL_PROPERTY
Delta U+W
SciTegic.value.DoubleValue
5.353

@<SCITEGIC>MOL_PROPERTY
U+W
SciTegic.value.DoubleValue
-6.425

@<SCITEGIC>MOL_PROPERTY
Grad RMS
SciTegic.value.DoubleValue
0.000000

@<SCITEGIC>MOL_PROPERTY
U
SciTegic.value.DoubleValue
51.541

@<SCITEGIC>MOL_PROPERTY
W
SciTegic.value.DoubleValue
-57.966

@<SCITEGIC>MOL_PROPERTY
W(PB)
SciTegic.value.DoubleValue
-59.821

@<SCITEGIC>MOL_PROPERTY
W(SA)
SciTegic.value.DoubleValue
1.855

@<SCITEGIC>MOL_PROPERTY
Valence
SciTegic.value.DoubleValue
5.347

@<SCITEGIC>MOL_PROPERTY
Coulomb
SciTegic.value.DoubleValue
45.870

@<SCITEGIC>MOL_PROPERTY
VdW
SciTegic.value.DoubleValue
0.325

@<SCITEGIC>MOL_PROPERTY
VdW6
SciTegic.value.DoubleValue
-6.161

@<SCITEGIC>MOL_PROPERTY
VdW12
SciTegic.value.DoubleValue
6.486

@<SCITEGIC>MOL_PROPERTY
Bond
SciTegic.value.DoubleValue
0.201

@<SCITEGIC>MOL_PROPERTY
Angle
SciTegic.value.DoubleValue
1.485

@<SCITEGIC>MOL_PROPERTY
Pdih
SciTegic.value.DoubleValue
3.662

@<SCITEGIC>MOL_PROPERTY
Idih
SciTegic.value.DoubleValue
0.000

@<SCITEGIC>MOL_PROPERTY
Tether
SciTegic.value.DoubleValue
0.000

@<TRIPOS>MOLECULE
guest-s11_confgen4.mol2 : confsearch ligand conformer 721
          20          19           1
SMALL
USER_CHARGES
 
@<TRIPOS>ATOM
       1    N1      21.760346   21.729382   21.475090 N.4        1 MOL1        -0.5919
       2    H1      21.830161   22.206424   22.379493 H          1 MOL1         0.3682
       3    H2      22.627304   21.930195   20.965524 H          1 MOL1         0.3682
       4    H3      20.999654   22.178598   20.955532 H          1 MOL1         0.3682
       5    C1      21.534051   20.239642   21.636186 C.3        1 MOL1         0.0252
       6    H4      22.393206   19.823440   22.169239 H          1 MOL1         0.0971
       7    H5      21.500214   19.793556   20.638500 H          1 MOL1         0.0971
       8    C2      20.239507   19.903309   22.397962 C.3        1 MOL1        -0.1369
       9    H6      20.270907   20.366526   23.393207 H          1 MOL1         0.0997
      10    H7      19.380975   20.336743   21.867749 H          1 MOL1         0.0997
      11    C3      20.046773   18.377088   22.540204 C.3        1 MOL1        -0.1329
      12    H8      20.909936   17.946029   23.066444 H          1 MOL1         0.0997
      13    H9      20.020983   17.916282   21.542815 H          1 MOL1         0.0997
      14    C4      18.749761   18.027427   23.303772 C.3        1 MOL1        -0.1305
      15    H10     18.772317   18.484764   24.302962 H          1 MOL1         0.0997
      16    H11     17.883482   18.454928   22.779510 H          1 MOL1         0.0997
      17    C5      18.561449   16.501653   23.443527 C.3        1 MOL1        -0.2320
      18    H12     19.396348   16.049399   23.994551 H          1 MOL1         0.1008
      19    H13     17.635984   16.273462   23.988034 H          1 MOL1         0.1008
      20    H14     18.500432   16.019341   22.459217 H          1 MOL1         0.1008
@<TRIPOS>BOND
    1     1     2    1
    2     1     3    1
    3     1     4    1
    4     1     5    1
    5     5     6    1
    6     5     7    1
    7     5     8    1
    8     8     9    1
    9     8    10    1
   10     8    11    1
   11    11    12    1
   12    11    13    1
   13    11    14    1
   14    14    15    1
   15    14    16    1
   16    14    17    1
   17    17    18    1
   18    17    19    1
   19    17    20    1
@<TRIPOS>SUBSTRUCTURE
       1 MOL1            1 RESIDUE      1      MOL     
@<SCITEGIC>MOL_PROPERTY
VConf Rank
SciTegic.value.IntegerValue
721

@<SCITEGIC>MOL_PROPERTY
Conf_Id
SciTegic.value.IntegerValue
72

@<SCITEGIC>MOL_PROPERTY
Delta U+W
SciTegic.value.DoubleValue
0.000

@<SCITEGIC>MOL_PROPERTY
U+W
SciTegic.value.DoubleValue
-11.778

@<SCITEGIC>MOL_PROPERTY
Grad RMS
SciTegic.value.DoubleValue
0.000000

@<SCITEGIC>MOL_PROPERTY
U
SciTegic.value.DoubleValue
45.772

@<SCITEGIC>MOL_PROPERTY
W
SciTegic.value.DoubleValue
-57.550

@<SCITEGIC>MOL_PROPERTY
W(PB)
SciTegic.value.DoubleValue
-59.511

@<SCITEGIC>MOL_PROPERTY
W(SA)
SciTegic.value.DoubleValue
1.961

@<SCITEGIC>MOL_PROPERTY
Valence
SciTegic.value.DoubleValue
1.299

@<SCITEGIC>MOL_PROPERTY
Coulomb
SciTegic.value.DoubleValue
44.177

@<SCITEGIC>MOL_PROPERTY
VdW
SciTegic.value.DoubleValue
0.297

@<SCITEGIC>MOL_PROPERTY
VdW6
SciTegic.value.DoubleValue
-3.490

@<SCITEGIC>MOL_PROPERTY
VdW12
SciTegic.value.DoubleValue
3.786

@<SCITEGIC>MOL_PROPERTY
Bond
SciTegic.value.DoubleValue
0.096

@<SCITEGIC>MOL_PROPERTY
Angle
SciTegic.value.DoubleValue
0.381

@<SCITEGIC>MOL_PROPERTY
Pdih
SciTegic.value.DoubleValue
0.822

@<SCITEGIC>MOL_PROPERTY
Idih
SciTegic.value.DoubleValue
0.000

@<SCITEGIC>MOL_PROPERTY
Tether
SciTegic.value.DoubleValue
0.000

@<TRIPOS>MOLECULE
guest-s11_confgen4.mol2 : confsearch ligand conformer 722
          20          19           1
SMALL
USER_CHARGES
 
@<TRIPOS>ATOM
       1    N1      17.965737   21.101089   23.361517 N.4        1 MOL1        -0.5919
       2    H1      17.241179   20.384990   23.249469 H          1 MOL1         0.3682
       3    H2      18.210029   21.129503   24.356443 H          1 MOL1         0.3682
       4    H3      17.530528   22.001961   23.136563 H          1 MOL1         0.3682
       5    C1      19.174002   20.826134   22.489124 C.3        1 MOL1         0.0252
       6    H4      19.888345   21.640823   22.635721 H          1 MOL1         0.0971
       7    H5      18.847240   20.839813   21.445790 H          1 MOL1         0.0971
       8    C2      19.852357   19.480194   22.801453 C.3        1 MOL1        -0.1369
       9    H6      20.164560   19.464629   23.854116 H          1 MOL1         0.0997
      10    H7      19.121984   18.672171   22.668340 H          1 MOL1         0.0997
      11    C3      21.079950   19.242630   21.890571 C.3        1 MOL1        -0.1329
      12    H8      21.763146   20.098724   21.980507 H          1 MOL1         0.0997
      13    H9      20.760614   19.212038   20.839535 H          1 MOL1         0.0997
      14    C4      21.861808   17.950754   22.231778 C.3        1 MOL1        -0.1305
      15    H10     22.769242   17.913887   21.612792 H          1 MOL1         0.0997
      16    H11     22.203825   17.987757   23.275585 H          1 MOL1         0.0997
      17    C5      21.046421   16.658553   21.997487 C.3        1 MOL1        -0.2320
      18    H12     20.668729   16.610787   20.967884 H          1 MOL1         0.1008
      19    H13     21.673060   15.773174   22.165949 H          1 MOL1         0.1008
      20    H14     20.191272   16.591285   22.681313 H          1 MOL1         0.1008
@<TRIPOS>BOND
    1     1     2    1
    2     1     3    1
    3     1     4    1
    4     1     5    1
    5     5     6    1
    6     5     7    1
    7     5     8    1
    8     8     9    1
    9     8    10    1
   10     8    11    1
   11    11    12    1
   12    11    13    1
   13    11    14    1
   14    14    15    1
   15    14    16    1
   16    14    17    1
   17    17    18    1
   18    17    19    1
   19    17    20    1
@<TRIPOS>SUBSTRUCTURE
       1 MOL1            1 RESIDUE      1      MOL     
@<SCITEGIC>MOL_PROPERTY
VConf Rank
SciTegic.value.IntegerValue
722

@<SCITEGIC>MOL_PROPERTY
Conf_Id
SciTegic.value.IntegerValue
42

@<SCITEGIC>MOL_PROPERTY
Delta U+W
SciTegic.value.DoubleValue
0.508

@<SCITEGIC>MOL_PROPERTY
U+W
SciTegic.value.DoubleValue
-11.270

@<SCITEGIC>MOL_PROPERTY
Grad RMS
SciTegic.value.DoubleValue
0.000000

@<SCITEGIC>MOL_PROPERTY
U
SciTegic.value.DoubleValue
46.486

@<SCITEGIC>MOL_PROPERTY
W
SciTegic.value.DoubleValue
-57.756

@<SCITEGIC>MOL_PROPERTY
W(PB)
SciTegic.value.DoubleValue
-59.705

@<SCITEGIC>MOL_PROPERTY
W(SA)
SciTegic.value.DoubleValue
1.949

@<SCITEGIC>MOL_PROPERTY
Valence
SciTegic.value.DoubleValue
1.806

@<SCITEGIC>MOL_PROPERTY
Coulomb
SciTegic.value.DoubleValue
44.248

@<SCITEGIC>MOL_PROPERTY
VdW
SciTegic.value.DoubleValue
0.433

@<SCITEGIC>MOL_PROPERTY
VdW6
SciTegic.value.DoubleValue
-4.089

@<SCITEGIC>MOL_PROPERTY
VdW12
SciTegic.value.DoubleValue
4.522

@<SCITEGIC>MOL_PROPERTY
Bond
SciTegic.value.DoubleValue
0.131

@<SCITEGIC>MOL_PROPERTY
Angle
SciTegic.value.DoubleValue
0.628

@<SCITEGIC>MOL_PROPERTY
Pdih
SciTegic.value.DoubleValue
1.047

@<SCITEGIC>MOL_PROPERTY
Idih
SciTegic.value.DoubleValue
0.000

@<SCITEGIC>MOL_PROPERTY
Tether
SciTegic.value.DoubleValue
0.000

@<TRIPOS>MOLECULE
guest-s11_confgen4.mol2 : confsearch ligand conformer 723
          20          19           1
SMALL
USER_CHARGES
 
@<TRIPOS>ATOM
       1    N1      18.592285   21.618072   22.606559 N.4        1 MOL1        -0.5919
       2    H1      19.295287   22.227863   22.177249 H          1 MOL1         0.3682
       3    H2      17.969351   21.301855   21.856696 H          1 MOL1         0.3682
       4    H3      18.030622   22.206066   23.231362 H          1 MOL1         0.3682
       5    C1      19.225364   20.456095   23.345207 C.3        1 MOL1         0.0252
       6    H4      18.423600   19.868404   23.800512 H          1 MOL1         0.0971
       7    H5      19.848549   20.864385   24.145478 H          1 MOL1         0.0971
       8    C2      20.077007   19.552477   22.435565 C.3        1 MOL1        -0.1369
       9    H6      19.446129   19.162948   21.626659 H          1 MOL1         0.0997
      10    H7      20.871014   20.149905   21.968184 H          1 MOL1         0.0997
      11    C3      20.704532   18.383090   23.230472 C.3        1 MOL1        -0.1329
      12    H8      19.908963   17.758458   23.659999 H          1 MOL1         0.0997
      13    H9      21.269342   18.790761   24.080494 H          1 MOL1         0.0997
      14    C4      21.655393   17.501200   22.385011 C.3        1 MOL1        -0.1305
      15    H10     22.466422   18.117865   21.972905 H          1 MOL1         0.0997
      16    H11     22.134915   16.765567   23.045950 H          1 MOL1         0.0997
      17    C5      20.940365   16.749449   21.239088 C.3        1 MOL1        -0.2320
      18    H12     20.546825   17.442614   20.485384 H          1 MOL1         0.1008
      19    H13     21.637973   16.071510   20.730469 H          1 MOL1         0.1008
      20    H14     20.106402   16.146831   21.621674 H          1 MOL1         0.1008
@<TRIPOS>BOND
    1     1     2    1
    2     1     3    1
    3     1     4    1
    4     1     5    1
    5     5     6    1
    6     5     7    1
    7     5     8    1
    8     8     9    1
    9     8    10    1
   10     8    11    1
   11    11    12    1
   12    11    13    1
   13    11    14    1
   14    14    15    1
   15    14    16    1
   16    14    17    1
   17    17    18    1
   18    17    19    1
   19    17    20    1
@<TRIPOS>SUBSTRUCTURE
       1 MOL1            1 RESIDUE      1      MOL     
@<SCITEGIC>MOL_PROPERTY
VConf Rank
SciTegic.value.IntegerValue
723

@<SCITEGIC>MOL_PROPERTY
Conf_Id
SciTegic.value.IntegerValue
41

@<SCITEGIC>MOL_PROPERTY
Delta U+W
SciTegic.value.DoubleValue
0.515

@<SCITEGIC>MOL_PROPERTY
U+W
SciTegic.value.DoubleValue
-11.263

@<SCITEGIC>MOL_PROPERTY
Grad RMS
SciTegic.value.DoubleValue
0.000000

@<SCITEGIC>MOL_PROPERTY
U
SciTegic.value.DoubleValue
46.486

@<SCITEGIC>MOL_PROPERTY
W
SciTegic.value.DoubleValue
-57.749

@<SCITEGIC>MOL_PROPERTY
W(PB)
SciTegic.value.DoubleValue
-59.685

@<SCITEGIC>MOL_PROPERTY
W(SA)
SciTegic.value.DoubleValue
1.936

@<SCITEGIC>MOL_PROPERTY
Valence
SciTegic.value.DoubleValue
1.806

@<SCITEGIC>MOL_PROPERTY
Coulomb
SciTegic.value.DoubleValue
44.248

@<SCITEGIC>MOL_PROPERTY
VdW
SciTegic.value.DoubleValue
0.433

@<SCITEGIC>MOL_PROPERTY
VdW6
SciTegic.value.DoubleValue
-4.089

@<SCITEGIC>MOL_PROPERTY
VdW12
SciTegic.value.DoubleValue
4.522

@<SCITEGIC>MOL_PROPERTY
Bond
SciTegic.value.DoubleValue
0.131

@<SCITEGIC>MOL_PROPERTY
Angle
SciTegic.value.DoubleValue
0.628

@<SCITEGIC>MOL_PROPERTY
Pdih
SciTegic.value.DoubleValue
1.047

@<SCITEGIC>MOL_PROPERTY
Idih
SciTegic.value.DoubleValue
0.000

@<SCITEGIC>MOL_PROPERTY
Tether
SciTegic.value.DoubleValue
0.000

@<TRIPOS>MOLECULE
guest-s11_confgen4.mol2 : confsearch ligand conformer 724
          20          19           1
SMALL
USER_CHARGES
 
@<TRIPOS>ATOM
       1    N1      18.936985   20.984839   20.808403 N.4        1 MOL1        -0.5919
       2    H1      18.916791   21.894791   20.336088 H          1 MOL1         0.3682
       3    H2      19.325804   20.311569   20.141720 H          1 MOL1         0.3682
       4    H3      17.962781   20.715552   20.977531 H          1 MOL1         0.3682
       5    C1      19.740279   21.035839   22.093814 C.3        1 MOL1         0.0252
       6    H4      19.293479   21.802753   22.732415 H          1 MOL1         0.0971
       7    H5      20.757873   21.350248   21.846646 H          1 MOL1         0.0971
       8    C2      19.782000   19.697867   22.857987 C.3        1 MOL1        -0.1369
       9    H6      20.281091   19.872647   23.819220 H          1 MOL1         0.0997
      10    H7      18.758023   19.376030   23.089464 H          1 MOL1         0.0997
      11    C3      20.525369   18.585231   22.076604 C.3        1 MOL1        -0.1329
      12    H8      21.555875   18.904943   21.868493 H          1 MOL1         0.0997
      13    H9      20.043928   18.440004   21.100524 H          1 MOL1         0.0997
      14    C4      20.545565   17.223282   22.812584 C.3        1 MOL1        -0.1305
      15    H10     19.516464   16.892437   23.010974 H          1 MOL1         0.0997
      16    H11     20.986780   16.469293   22.145673 H          1 MOL1         0.0997
      17    C5      21.347914   17.247921   24.133717 C.3        1 MOL1        -0.2320
      18    H12     20.874426   17.895096   24.882211 H          1 MOL1         0.1008
      19    H13     21.410788   16.239784   24.563432 H          1 MOL1         0.1008
      20    H14     22.372317   17.605625   23.967429 H          1 MOL1         0.1008
@<TRIPOS>BOND
    1     1     2    1
    2     1     3    1
    3     1     4    1
    4     1     5    1
    5     5     6    1
    6     5     7    1
    7     5     8    1
    8     8     9    1
    9     8    10    1
   10     8    11    1
   11    11    12    1
   12    11    13    1
   13    11    14    1
   14    14    15    1
   15    14    16    1
   16    14    17    1
   17    17    18    1
   18    17    19    1
   19    17    20    1
@<TRIPOS>SUBSTRUCTURE
       1 MOL1            1 RESIDUE      1      MOL     
@<SCITEGIC>MOL_PROPERTY
VConf Rank
SciTegic.value.IntegerValue
724

@<SCITEGIC>MOL_PROPERTY
Conf_Id
SciTegic.value.IntegerValue
33

@<SCITEGIC>MOL_PROPERTY
Delta U+W
SciTegic.value.DoubleValue
0.703

@<SCITEGIC>MOL_PROPERTY
U+W
SciTegic.value.DoubleValue
-11.075

@<SCITEGIC>MOL_PROPERTY
Grad RMS
SciTegic.value.DoubleValue
0.000000

@<SCITEGIC>MOL_PROPERTY
U
SciTegic.value.DoubleValue
47.080

@<SCITEGIC>MOL_PROPERTY
W
SciTegic.value.DoubleValue
-58.154

@<SCITEGIC>MOL_PROPERTY
W(PB)
SciTegic.value.DoubleValue
-60.053

@<SCITEGIC>MOL_PROPERTY
W(SA)
SciTegic.value.DoubleValue
1.899

@<SCITEGIC>MOL_PROPERTY
Valence
SciTegic.value.DoubleValue
1.943

@<SCITEGIC>MOL_PROPERTY
Coulomb
SciTegic.value.DoubleValue
44.572

@<SCITEGIC>MOL_PROPERTY
VdW
SciTegic.value.DoubleValue
0.565

@<SCITEGIC>MOL_PROPERTY
VdW6
SciTegic.value.DoubleValue
-4.575

@<SCITEGIC>MOL_PROPERTY
VdW12
SciTegic.value.DoubleValue
5.139

@<SCITEGIC>MOL_PROPERTY
Bond
SciTegic.value.DoubleValue
0.158

@<SCITEGIC>MOL_PROPERTY
Angle
SciTegic.value.DoubleValue
0.700

@<SCITEGIC>MOL_PROPERTY
Pdih
SciTegic.value.DoubleValue
1.085

@<SCITEGIC>MOL_PROPERTY
Idih
SciTegic.value.DoubleValue
0.000

@<SCITEGIC>MOL_PROPERTY
Tether
SciTegic.value.DoubleValue
0.000

@<TRIPOS>MOLECULE
guest-s11_confgen4.mol2 : confsearch ligand conformer 725
          20          19           1
SMALL
USER_CHARGES
 
@<TRIPOS>ATOM
       1    N1      22.315757   19.018179   20.748483 N.4        1 MOL1        -0.5919
       2    H1      22.856551   18.564244   20.004853 H          1 MOL1         0.3682
       3    H2      22.484923   20.025621   20.667017 H          1 MOL1         0.3682
       4    H3      22.720166   18.714337   21.639029 H          1 MOL1         0.3682
       5    C1      20.839407   18.683868   20.654731 C.3        1 MOL1         0.0252
       6    H4      20.731476   17.598114   20.724960 H          1 MOL1         0.0971
       7    H5      20.491982   18.996515   19.666223 H          1 MOL1         0.0971
       8    C2      19.975355   19.362000   21.736124 C.3        1 MOL1        -0.1369
       9    H6      20.099307   20.451272   21.674370 H          1 MOL1         0.0997
      10    H7      18.922750   19.152343   21.508799 H          1 MOL1         0.0997
      11    C3      20.310564   18.868823   23.166344 C.3        1 MOL1        -0.1329
      12    H8      21.373578   19.047939   23.374975 H          1 MOL1         0.0997
      13    H9      20.162591   17.781660   23.226738 H          1 MOL1         0.0997
      14    C4      19.477689   19.565740   24.269794 C.3        1 MOL1        -0.1305
      15    H10     19.854764   19.244785   25.250989 H          1 MOL1         0.0997
      16    H11     19.632941   20.652712   24.222313 H          1 MOL1         0.0997
      17    C5      17.965914   19.252261   24.192130 C.3        1 MOL1        -0.2320
      18    H12     17.785514   18.169547   24.206001 H          1 MOL1         0.1008
      19    H13     17.438509   19.690696   25.049199 H          1 MOL1         0.1008
      20    H14     17.513715   19.665079   23.281982 H          1 MOL1         0.1008
@<TRIPOS>BOND
    1     1     2    1
    2     1     3    1
    3     1     4    1
    4     1     5    1
    5     5     6    1
    6     5     7    1
    7     5     8    1
    8     8     9    1
    9     8    10    1
   10     8    11    1
   11    11    12    1
   12    11    13    1
   13    11    14    1
   14    14    15    1
   15    14    16    1
   16    14    17    1
   17    17    18    1
   18    17    19    1
   19    17    20    1
@<TRIPOS>SUBSTRUCTURE
       1 MOL1            1 RESIDUE      1      MOL     
@<SCITEGIC>MOL_PROPERTY
VConf Rank
SciTegic.value.IntegerValue
725

@<SCITEGIC>MOL_PROPERTY
Conf_Id
SciTegic.value.IntegerValue
24

@<SCITEGIC>MOL_PROPERTY
Delta U+W
SciTegic.value.DoubleValue
0.847

@<SCITEGIC>MOL_PROPERTY
U+W
SciTegic.value.DoubleValue
-10.931

@<SCITEGIC>MOL_PROPERTY
Grad RMS
SciTegic.value.DoubleValue
0.000000

@<SCITEGIC>MOL_PROPERTY
U
SciTegic.value.DoubleValue
47.080

@<SCITEGIC>MOL_PROPERTY
W
SciTegic.value.DoubleValue
-58.011

@<SCITEGIC>MOL_PROPERTY
W(PB)
SciTegic.value.DoubleValue
-59.914

@<SCITEGIC>MOL_PROPERTY
W(SA)
SciTegic.value.DoubleValue
1.903

@<SCITEGIC>MOL_PROPERTY
Valence
SciTegic.value.DoubleValue
1.943

@<SCITEGIC>MOL_PROPERTY
Coulomb
SciTegic.value.DoubleValue
44.572

@<SCITEGIC>MOL_PROPERTY
VdW
SciTegic.value.DoubleValue
0.565

@<SCITEGIC>MOL_PROPERTY
VdW6
SciTegic.value.DoubleValue
-4.575

@<SCITEGIC>MOL_PROPERTY
VdW12
SciTegic.value.DoubleValue
5.140

@<SCITEGIC>MOL_PROPERTY
Bond
SciTegic.value.DoubleValue
0.158

@<SCITEGIC>MOL_PROPERTY
Angle
SciTegic.value.DoubleValue
0.700

@<SCITEGIC>MOL_PROPERTY
Pdih
SciTegic.value.DoubleValue
1.085

@<SCITEGIC>MOL_PROPERTY
Idih
SciTegic.value.DoubleValue
0.000

@<SCITEGIC>MOL_PROPERTY
Tether
SciTegic.value.DoubleValue
0.000

@<TRIPOS>MOLECULE
guest-s11_confgen4.mol2 : confsearch ligand conformer 726
          20          19           1
SMALL
USER_CHARGES
 
@<TRIPOS>ATOM
       1    N1      22.738045   19.334783   23.351050 N.4        1 MOL1        -0.5919
       2    H1      23.488713   19.919148   22.968292 H          1 MOL1         0.3682
       3    H2      22.451996   19.761349   24.237864 H          1 MOL1         0.3682
       4    H3      23.154401   18.425410   23.574652 H          1 MOL1         0.3682
       5    C1      21.577900   19.204066   22.384972 C.3        1 MOL1         0.0252
       6    H4      21.958759   18.771581   21.455843 H          1 MOL1         0.0971
       7    H5      21.205602   20.209003   22.169381 H          1 MOL1         0.0971
       8    C2      20.431421   18.331860   22.930376 C.3        1 MOL1        -0.1369
       9    H6      20.824980   17.338225   23.182489 H          1 MOL1         0.0997
      10    H7      20.054439   18.760119   23.867890 H          1 MOL1         0.0997
      11    C3      19.270075   18.166946   21.918409 C.3        1 MOL1        -0.1329
      12    H8      18.496442   17.527277   22.365150 H          1 MOL1         0.0997
      13    H9      19.639272   17.623726   21.037444 H          1 MOL1         0.0997
      14    C4      18.621498   19.494738   21.449857 C.3        1 MOL1        -0.1305
      15    H10     19.355596   20.104569   20.905813 H          1 MOL1         0.0997
      16    H11     17.828757   19.260751   20.725500 H          1 MOL1         0.0997
      17    C5      18.012167   20.322047   22.604536 C.3        1 MOL1        -0.2320
      18    H12     17.486318   21.201719   22.211389 H          1 MOL1         0.1008
      19    H13     17.289090   19.727361   23.177671 H          1 MOL1         0.1008
      20    H14     18.785812   20.681613   23.294334 H          1 MOL1         0.1008
@<TRIPOS>BOND
    1     1     2    1
    2     1     3    1
    3     1     4    1
    4     1     5    1
    5     5     6    1
    6     5     7    1
    7     5     8    1
    8     8     9    1
    9     8    10    1
   10     8    11    1
   11    11    12    1
   12    11    13    1
   13    11    14    1
   14    14    15    1
   15    14    16    1
   16    14    17    1
   17    17    18    1
   18    17    19    1
   19    17    20    1
@<TRIPOS>SUBSTRUCTURE
       1 MOL1            1 RESIDUE      1      MOL     
@<SCITEGIC>MOL_PROPERTY
VConf Rank
SciTegic.value.IntegerValue
726

@<SCITEGIC>MOL_PROPERTY
Conf_Id
SciTegic.value.IntegerValue
64

@<SCITEGIC>MOL_PROPERTY
Delta U+W
SciTegic.value.DoubleValue
0.707

@<SCITEGIC>MOL_PROPERTY
U+W
SciTegic.value.DoubleValue
-11.070

@<SCITEGIC>MOL_PROPERTY
Grad RMS
SciTegic.value.DoubleValue
0.000000

@<SCITEGIC>MOL_PROPERTY
U
SciTegic.value.DoubleValue
47.077

@<SCITEGIC>MOL_PROPERTY
W
SciTegic.value.DoubleValue
-58.148

@<SCITEGIC>MOL_PROPERTY
W(PB)
SciTegic.value.DoubleValue
-60.054

@<SCITEGIC>MOL_PROPERTY
W(SA)
SciTegic.value.DoubleValue
1.906

@<SCITEGIC>MOL_PROPERTY
Valence
SciTegic.value.DoubleValue
2.039

@<SCITEGIC>MOL_PROPERTY
Coulomb
SciTegic.value.DoubleValue
44.655

@<SCITEGIC>MOL_PROPERTY
VdW
SciTegic.value.DoubleValue
0.383

@<SCITEGIC>MOL_PROPERTY
VdW6
SciTegic.value.DoubleValue
-4.912

@<SCITEGIC>MOL_PROPERTY
VdW12
SciTegic.value.DoubleValue
5.295

@<SCITEGIC>MOL_PROPERTY
Bond
SciTegic.value.DoubleValue
0.159

@<SCITEGIC>MOL_PROPERTY
Angle
SciTegic.value.DoubleValue
0.856

@<SCITEGIC>MOL_PROPERTY
Pdih
SciTegic.value.DoubleValue
1.024

@<SCITEGIC>MOL_PROPERTY
Idih
SciTegic.value.DoubleValue
0.000

@<SCITEGIC>MOL_PROPERTY
Tether
SciTegic.value.DoubleValue
0.000

@<TRIPOS>MOLECULE
guest-s11_confgen4.mol2 : confsearch ligand conformer 727
          20          19           1
SMALL
USER_CHARGES
 
@<TRIPOS>ATOM
       1    N1      21.982597   18.086725   20.643620 N.4        1 MOL1        -0.5919
       2    H1      22.468552   17.232690   20.934789 H          1 MOL1         0.3682
       3    H2      21.220653   17.802097   20.020202 H          1 MOL1         0.3682
       4    H3      22.644813   18.626758   20.076767 H          1 MOL1         0.3682
       5    C1      21.476789   18.882651   21.829785 C.3        1 MOL1         0.0252
       6    H4      20.999683   19.788774   21.447299 H          1 MOL1         0.0971
       7    H5      22.340245   19.176673   22.432590 H          1 MOL1         0.0971
       8    C2      20.478308   18.099376   22.702790 C.3        1 MOL1        -0.1369
       9    H6      19.615403   17.795820   22.096404 H          1 MOL1         0.0997
      10    H7      20.953725   17.171482   23.047394 H          1 MOL1         0.0997
      11    C3      20.001405   18.904487   23.937438 C.3        1 MOL1        -0.1329
      12    H8      20.861420   19.090569   24.595648 H          1 MOL1         0.0997
      13    H9      19.304565   18.285272   24.519029 H          1 MOL1         0.0997
      14    C4      19.322715   20.258961   23.608797 C.3        1 MOL1        -0.1305
      15    H10     19.044034   20.749025   24.552225 H          1 MOL1         0.0997
      16    H11     20.038579   20.933439   23.119519 H          1 MOL1         0.0997
      17    C5      18.059212   20.116007   22.730087 C.3        1 MOL1        -0.2320
      18    H12     17.335354   19.429459   23.187970 H          1 MOL1         0.1008
      19    H13     17.566089   21.088637   22.604680 H          1 MOL1         0.1008
      20    H14     18.305073   19.739731   21.729285 H          1 MOL1         0.1008
@<TRIPOS>BOND
    1     1     2    1
    2     1     3    1
    3     1     4    1
    4     1     5    1
    5     5     6    1
    6     5     7    1
    7     5     8    1
    8     8     9    1
    9     8    10    1
   10     8    11    1
   11    11    12    1
   12    11    13    1
   13    11    14    1
   14    14    15    1
   15    14    16    1
   16    14    17    1
   17    17    18    1
   18    17    19    1
   19    17    20    1
@<TRIPOS>SUBSTRUCTURE
       1 MOL1            1 RESIDUE      1      MOL     
@<SCITEGIC>MOL_PROPERTY
VConf Rank
SciTegic.value.IntegerValue
727

@<SCITEGIC>MOL_PROPERTY
Conf_Id
SciTegic.value.IntegerValue
22

@<SCITEGIC>MOL_PROPERTY
Delta U+W
SciTegic.value.DoubleValue
0.731

@<SCITEGIC>MOL_PROPERTY
U+W
SciTegic.value.DoubleValue
-11.047

@<SCITEGIC>MOL_PROPERTY
Grad RMS
SciTegic.value.DoubleValue
0.000000

@<SCITEGIC>MOL_PROPERTY
U
SciTegic.value.DoubleValue
47.078

@<SCITEGIC>MOL_PROPERTY
W
SciTegic.value.DoubleValue
-58.125

@<SCITEGIC>MOL_PROPERTY
W(PB)
SciTegic.value.DoubleValue
-60.031

@<SCITEGIC>MOL_PROPERTY
W(SA)
SciTegic.value.DoubleValue
1.906

@<SCITEGIC>MOL_PROPERTY
Valence
SciTegic.value.DoubleValue
2.039

@<SCITEGIC>MOL_PROPERTY
Coulomb
SciTegic.value.DoubleValue
44.655

@<SCITEGIC>MOL_PROPERTY
VdW
SciTegic.value.DoubleValue
0.383

@<SCITEGIC>MOL_PROPERTY
VdW6
SciTegic.value.DoubleValue
-4.913

@<SCITEGIC>MOL_PROPERTY
VdW12
SciTegic.value.DoubleValue
5.296

@<SCITEGIC>MOL_PROPERTY
Bond
SciTegic.value.DoubleValue
0.159

@<SCITEGIC>MOL_PROPERTY
Angle
SciTegic.value.DoubleValue
0.856

@<SCITEGIC>MOL_PROPERTY
Pdih
SciTegic.value.DoubleValue
1.024

@<SCITEGIC>MOL_PROPERTY
Idih
SciTegic.value.DoubleValue
0.000

@<SCITEGIC>MOL_PROPERTY
Tether
SciTegic.value.DoubleValue
0.000

@<TRIPOS>MOLECULE
guest-s11_confgen4.mol2 : confsearch ligand conformer 728
          20          19           1
SMALL
USER_CHARGES
 
@<TRIPOS>ATOM
       1    N1      19.079673   21.637733   23.166379 N.4        1 MOL1        -0.5919
       2    H1      19.097686   21.603853   24.190519 H          1 MOL1         0.3682
       3    H2      19.664332   22.429597   22.881008 H          1 MOL1         0.3682
       4    H3      18.117804   21.865048   22.893198 H          1 MOL1         0.3682
       5    C1      19.548321   20.335850   22.548252 C.3        1 MOL1         0.0252
       6    H4      19.477552   20.432472   21.461490 H          1 MOL1         0.0971
       7    H5      18.863343   19.549256   22.872817 H          1 MOL1         0.0971
       8    C2      20.988208   19.963135   22.943830 C.3        1 MOL1        -0.1369
       9    H6      21.646885   20.812926   22.720393 H          1 MOL1         0.0997
      10    H7      21.040414   19.807720   24.029604 H          1 MOL1         0.0997
      11    C3      21.536813   18.711829   22.212271 C.3        1 MOL1        -0.1329
      12    H8      22.590878   18.596883   22.500863 H          1 MOL1         0.0997
      13    H9      21.543354   18.880215   21.126475 H          1 MOL1         0.0997
      14    C4      20.802310   17.386851   22.544127 C.3        1 MOL1        -0.1305
      15    H10     21.514308   16.558332   22.422808 H          1 MOL1         0.0997
      16    H11     20.500415   17.372488   23.600723 H          1 MOL1         0.0997
      17    C5      19.584583   17.100153   21.634302 C.3        1 MOL1        -0.2320
      18    H12     18.785060   17.836693   21.765246 H          1 MOL1         0.1008
      19    H13     19.875742   17.097795   20.575896 H          1 MOL1         0.1008
      20    H14     19.160928   16.113783   21.863593 H          1 MOL1         0.1008
@<TRIPOS>BOND
    1     1     2    1
    2     1     3    1
    3     1     4    1
    4     1     5    1
    5     5     6    1
    6     5     7    1
    7     5     8    1
    8     8     9    1
    9     8    10    1
   10     8    11    1
   11    11    12    1
   12    11    13    1
   13    11    14    1
   14    14    15    1
   15    14    16    1
   16    14    17    1
   17    17    18    1
   18    17    19    1
   19    17    20    1
@<TRIPOS>SUBSTRUCTURE
       1 MOL1            1 RESIDUE      1      MOL     
@<SCITEGIC>MOL_PROPERTY
VConf Rank
SciTegic.value.IntegerValue
728

@<SCITEGIC>MOL_PROPERTY
Conf_Id
SciTegic.value.IntegerValue
61

@<SCITEGIC>MOL_PROPERTY
Delta U+W
SciTegic.value.DoubleValue
2.669

@<SCITEGIC>MOL_PROPERTY
U+W
SciTegic.value.DoubleValue
-9.108

@<SCITEGIC>MOL_PROPERTY
Grad RMS
SciTegic.value.DoubleValue
0.000000

@<SCITEGIC>MOL_PROPERTY
U
SciTegic.value.DoubleValue
48.916

@<SCITEGIC>MOL_PROPERTY
W
SciTegic.value.DoubleValue
-58.025

@<SCITEGIC>MOL_PROPERTY
W(PB)
SciTegic.value.DoubleValue
-59.935

@<SCITEGIC>MOL_PROPERTY
W(SA)
SciTegic.value.DoubleValue
1.911

@<SCITEGIC>MOL_PROPERTY
Valence
SciTegic.value.DoubleValue
3.785

@<SCITEGIC>MOL_PROPERTY
Coulomb
SciTegic.value.DoubleValue
44.716

@<SCITEGIC>MOL_PROPERTY
VdW
SciTegic.value.DoubleValue
0.415

@<SCITEGIC>MOL_PROPERTY
VdW6
SciTegic.value.DoubleValue
-4.836

@<SCITEGIC>MOL_PROPERTY
VdW12
SciTegic.value.DoubleValue
5.251

@<SCITEGIC>MOL_PROPERTY
Bond
SciTegic.value.DoubleValue
0.175

@<SCITEGIC>MOL_PROPERTY
Angle
SciTegic.value.DoubleValue
1.195

@<SCITEGIC>MOL_PROPERTY
Pdih
SciTegic.value.DoubleValue
2.415

@<SCITEGIC>MOL_PROPERTY
Idih
SciTegic.value.DoubleValue
0.000

@<SCITEGIC>MOL_PROPERTY
Tether
SciTegic.value.DoubleValue
0.000

@<TRIPOS>MOLECULE
guest-s11_confgen4.mol2 : confsearch ligand conformer 729
          20          19           1
SMALL
USER_CHARGES
 
@<TRIPOS>ATOM
       1    N1      18.411470   20.420593   21.785266 N.4        1 MOL1        -0.5919
       2    H1      17.571298   20.915137   22.103352 H          1 MOL1         0.3682
       3    H2      18.459245   20.540871   20.768628 H          1 MOL1         0.3682
       4    H3      18.260044   19.424673   21.964819 H          1 MOL1         0.3682
       5    C1      19.661205   20.937172   22.472201 C.3        1 MOL1         0.0252
       6    H4      19.531403   20.837640   23.553211 H          1 MOL1         0.0971
       7    H5      19.735633   22.002536   22.237635 H          1 MOL1         0.0971
       8    C2      20.964181   20.235861   22.034149 C.3        1 MOL1        -0.1369
       9    H6      20.967605   20.093809   20.945285 H          1 MOL1         0.0997
      10    H7      21.798367   20.916243   22.251141 H          1 MOL1         0.0997
      11    C3      21.247481   18.892957   22.755343 C.3        1 MOL1        -0.1329
      12    H8      21.298562   19.063409   23.839688 H          1 MOL1         0.0997
      13    H9      22.245824   18.547043   22.453456 H          1 MOL1         0.0997
      14    C4      20.220644   17.775471   22.456779 C.3        1 MOL1        -0.1305
      15    H10     19.245137   18.036683   22.885739 H          1 MOL1         0.0997
      16    H11     20.084512   17.673215   21.370983 H          1 MOL1         0.0997
      17    C5      20.668665   16.420103   23.044381 C.3        1 MOL1        -0.2320
      18    H12     19.925279   15.640693   22.832373 H          1 MOL1         0.1008
      19    H13     21.625218   16.098257   22.612360 H          1 MOL1         0.1008
      20    H14     20.789524   16.482666   24.133761 H          1 MOL1         0.1008
@<TRIPOS>BOND
    1     1     2    1
    2     1     3    1
    3     1     4    1
    4     1     5    1
    5     5     6    1
    6     5     7    1
    7     5     8    1
    8     8     9    1
    9     8    10    1
   10     8    11    1
   11    11    12    1
   12    11    13    1
   13    11    14    1
   14    14    15    1
   15    14    16    1
   16    14    17    1
   17    17    18    1
   18    17    19    1
   19    17    20    1
@<TRIPOS>SUBSTRUCTURE
       1 MOL1            1 RESIDUE      1      MOL     
@<SCITEGIC>MOL_PROPERTY
VConf Rank
SciTegic.value.IntegerValue
729

@<SCITEGIC>MOL_PROPERTY
Conf_Id
SciTegic.value.IntegerValue
69

@<SCITEGIC>MOL_PROPERTY
Delta U+W
SciTegic.value.DoubleValue
2.811

@<SCITEGIC>MOL_PROPERTY
U+W
SciTegic.value.DoubleValue
-8.967

@<SCITEGIC>MOL_PROPERTY
Grad RMS
SciTegic.value.DoubleValue
0.000000

@<SCITEGIC>MOL_PROPERTY
U
SciTegic.value.DoubleValue
49.216

@<SCITEGIC>MOL_PROPERTY
W
SciTegic.value.DoubleValue
-58.183

@<SCITEGIC>MOL_PROPERTY
W(PB)
SciTegic.value.DoubleValue
-60.064

@<SCITEGIC>MOL_PROPERTY
W(SA)
SciTegic.value.DoubleValue
1.881

@<SCITEGIC>MOL_PROPERTY
Valence
SciTegic.value.DoubleValue
2.929

@<SCITEGIC>MOL_PROPERTY
Coulomb
SciTegic.value.DoubleValue
46.006

@<SCITEGIC>MOL_PROPERTY
VdW
SciTegic.value.DoubleValue
0.281

@<SCITEGIC>MOL_PROPERTY
VdW6
SciTegic.value.DoubleValue
-4.909

@<SCITEGIC>MOL_PROPERTY
VdW12
SciTegic.value.DoubleValue
5.190

@<SCITEGIC>MOL_PROPERTY
Bond
SciTegic.value.DoubleValue
0.156

@<SCITEGIC>MOL_PROPERTY
Angle
SciTegic.value.DoubleValue
0.974

@<SCITEGIC>MOL_PROPERTY
Pdih
SciTegic.value.DoubleValue
1.799

@<SCITEGIC>MOL_PROPERTY
Idih
SciTegic.value.DoubleValue
0.000

@<SCITEGIC>MOL_PROPERTY
Tether
SciTegic.value.DoubleValue
0.000

@<TRIPOS>MOLECULE
guest-s11_confgen4.mol2 : confsearch ligand conformer 730
          20          19           1
SMALL
USER_CHARGES
 
@<TRIPOS>ATOM
       1    N1      19.634357   17.984490   24.339971 N.4        1 MOL1        -0.5919
       2    H1      19.731225   17.516050   23.435422 H          1 MOL1         0.3682
       3    H2      20.515820   17.851358   24.845542 H          1 MOL1         0.3682
       4    H3      18.912212   17.479751   24.864745 H          1 MOL1         0.3682
       5    C1      19.291689   19.453781   24.183984 C.3        1 MOL1         0.0252
       6    H4      19.195890   19.866647   25.191913 H          1 MOL1         0.0971
       7    H5      18.318663   19.534628   23.692024 H          1 MOL1         0.0971
       8    C2      20.342284   20.273019   23.405152 C.3        1 MOL1        -0.1369
       9    H6      20.224179   21.326200   23.692784 H          1 MOL1         0.0997
      10    H7      21.353820   19.986474   23.722172 H          1 MOL1         0.0997
      11    C3      20.214145   20.185387   21.862533 C.3        1 MOL1        -0.1329
      12    H8      20.930019   20.891661   21.419610 H          1 MOL1         0.0997
      13    H9      19.216479   20.530773   21.557844 H          1 MOL1         0.0997
      14    C4      20.473921   18.777874   21.276243 C.3        1 MOL1        -0.1305
      15    H10     21.422778   18.380856   21.663528 H          1 MOL1         0.0997
      16    H11     19.679285   18.088279   21.587471 H          1 MOL1         0.0997
      17    C5      20.524360   18.805178   19.733606 C.3        1 MOL1        -0.2320
      18    H12     21.333967   19.454447   19.375544 H          1 MOL1         0.1008
      19    H13     20.699613   17.798129   19.333367 H          1 MOL1         0.1008
      20    H14     19.579367   19.174403   19.314163 H          1 MOL1         0.1008
@<TRIPOS>BOND
    1     1     2    1
    2     1     3    1
    3     1     4    1
    4     1     5    1
    5     5     6    1
    6     5     7    1
    7     5     8    1
    8     8     9    1
    9     8    10    1
   10     8    11    1
   11    11    12    1
   12    11    13    1
   13    11    14    1
   14    14    15    1
   15    14    16    1
   16    14    17    1
   17    17    18    1
   18    17    19    1
   19    17    20    1
@<TRIPOS>SUBSTRUCTURE
       1 MOL1            1 RESIDUE      1      MOL     
@<SCITEGIC>MOL_PROPERTY
VConf Rank
SciTegic.value.IntegerValue
730

@<SCITEGIC>MOL_PROPERTY
Conf_Id
SciTegic.value.IntegerValue
26

@<SCITEGIC>MOL_PROPERTY
Delta U+W
SciTegic.value.DoubleValue
2.809

@<SCITEGIC>MOL_PROPERTY
U+W
SciTegic.value.DoubleValue
-8.969

@<SCITEGIC>MOL_PROPERTY
Grad RMS
SciTegic.value.DoubleValue
0.000000

@<SCITEGIC>MOL_PROPERTY
U
SciTegic.value.DoubleValue
49.216

@<SCITEGIC>MOL_PROPERTY
W
SciTegic.value.DoubleValue
-58.185

@<SCITEGIC>MOL_PROPERTY
W(PB)
SciTegic.value.DoubleValue
-60.088

@<SCITEGIC>MOL_PROPERTY
W(SA)
SciTegic.value.DoubleValue
1.903

@<SCITEGIC>MOL_PROPERTY
Valence
SciTegic.value.DoubleValue
2.929

@<SCITEGIC>MOL_PROPERTY
Coulomb
SciTegic.value.DoubleValue
46.006

@<SCITEGIC>MOL_PROPERTY
VdW
SciTegic.value.DoubleValue
0.281

@<SCITEGIC>MOL_PROPERTY
VdW6
SciTegic.value.DoubleValue
-4.909

@<SCITEGIC>MOL_PROPERTY
VdW12
SciTegic.value.DoubleValue
5.190

@<SCITEGIC>MOL_PROPERTY
Bond
SciTegic.value.DoubleValue
0.156

@<SCITEGIC>MOL_PROPERTY
Angle
SciTegic.value.DoubleValue
0.974

@<SCITEGIC>MOL_PROPERTY
Pdih
SciTegic.value.DoubleValue
1.799

@<SCITEGIC>MOL_PROPERTY
Idih
SciTegic.value.DoubleValue
0.000

@<SCITEGIC>MOL_PROPERTY
Tether
SciTegic.value.DoubleValue
0.000

@<TRIPOS>MOLECULE
guest-s11_confgen4.mol2 : confsearch ligand conformer 731
          20          19           1
SMALL
USER_CHARGES
 
@<TRIPOS>ATOM
       1    N1      20.592071   19.035002   24.834419 N.4        1 MOL1        -0.5919
       2    H1      21.379337   18.596154   24.348042 H          1 MOL1         0.3682
       3    H2      20.951133   19.878669   25.291954 H          1 MOL1         0.3682
       4    H3      20.302406   18.392127   25.578808 H          1 MOL1         0.3682
       5    C1      19.451765   19.349910   23.885981 C.3        1 MOL1         0.0252
       6    H4      18.639363   19.784598   24.474673 H          1 MOL1         0.0971
       7    H5      19.095033   18.408968   23.459014 H          1 MOL1         0.0971
       8    C2      19.838885   20.321327   22.752500 C.3        1 MOL1        -0.1369
       9    H6      18.942270   20.552976   22.163475 H          1 MOL1         0.0997
      10    H7      20.163249   21.274216   23.191168 H          1 MOL1         0.0997
      11    C3      20.953212   19.785097   21.815628 C.3        1 MOL1        -0.1329
      12    H8      21.894496   19.709770   22.376446 H          1 MOL1         0.0997
      13    H9      21.137233   20.525772   21.025226 H          1 MOL1         0.0997
      14    C4      20.647936   18.413677   21.160611 C.3        1 MOL1        -0.1305
      15    H10     21.507073   18.122403   20.540213 H          1 MOL1         0.0997
      16    H11     20.555258   17.636307   21.931068 H          1 MOL1         0.0997
      17    C5      19.378491   18.424417   20.279002 C.3        1 MOL1        -0.2320
      18    H12     19.438672   19.205157   19.509725 H          1 MOL1         0.1008
      19    H13     19.256127   17.459991   19.769301 H          1 MOL1         0.1008
      20    H14     18.474863   18.598855   20.876187 H          1 MOL1         0.1008
@<TRIPOS>BOND
    1     1     2    1
    2     1     3    1
    3     1     4    1
    4     1     5    1
    5     5     6    1
    6     5     7    1
    7     5     8    1
    8     8     9    1
    9     8    10    1
   10     8    11    1
   11    11    12    1
   12    11    13    1
   13    11    14    1
   14    14    15    1
   15    14    16    1
   16    14    17    1
   17    17    18    1
   18    17    19    1
   19    17    20    1
@<TRIPOS>SUBSTRUCTURE
       1 MOL1            1 RESIDUE      1      MOL     
@<SCITEGIC>MOL_PROPERTY
VConf Rank
SciTegic.value.IntegerValue
731

@<SCITEGIC>MOL_PROPERTY
Conf_Id
SciTegic.value.IntegerValue
2

@<SCITEGIC>MOL_PROPERTY
Delta U+W
SciTegic.value.DoubleValue
0.994

@<SCITEGIC>MOL_PROPERTY
U+W
SciTegic.value.DoubleValue
-10.784

@<SCITEGIC>MOL_PROPERTY
Grad RMS
SciTegic.value.DoubleValue
0.000000

@<SCITEGIC>MOL_PROPERTY
U
SciTegic.value.DoubleValue
47.562

@<SCITEGIC>MOL_PROPERTY
W
SciTegic.value.DoubleValue
-58.346

@<SCITEGIC>MOL_PROPERTY
W(PB)
SciTegic.value.DoubleValue
-60.221

@<SCITEGIC>MOL_PROPERTY
W(SA)
SciTegic.value.DoubleValue
1.875

@<SCITEGIC>MOL_PROPERTY
Valence
SciTegic.value.DoubleValue
2.149

@<SCITEGIC>MOL_PROPERTY
Coulomb
SciTegic.value.DoubleValue
45.034

@<SCITEGIC>MOL_PROPERTY
VdW
SciTegic.value.DoubleValue
0.378

@<SCITEGIC>MOL_PROPERTY
VdW6
SciTegic.value.DoubleValue
-5.599

@<SCITEGIC>MOL_PROPERTY
VdW12
SciTegic.value.DoubleValue
5.977

@<SCITEGIC>MOL_PROPERTY
Bond
SciTegic.value.DoubleValue
0.185

@<SCITEGIC>MOL_PROPERTY
Angle
SciTegic.value.DoubleValue
0.935

@<SCITEGIC>MOL_PROPERTY
Pdih
SciTegic.value.DoubleValue
1.028

@<SCITEGIC>MOL_PROPERTY
Idih
SciTegic.value.DoubleValue
0.000

@<SCITEGIC>MOL_PROPERTY
Tether
SciTegic.value.DoubleValue
0.000

@<TRIPOS>MOLECULE
guest-s11_confgen4.mol2 : confsearch ligand conformer 732
          20          19           1
SMALL
USER_CHARGES
 
@<TRIPOS>ATOM
       1    N1      18.059233   17.904049   22.492393 N.4        1 MOL1        -0.5919
       2    H1      17.776810   17.470069   23.376665 H          1 MOL1         0.3682
       3    H2      17.847661   18.903527   22.564658 H          1 MOL1         0.3682
       4    H3      17.449548   17.519580   21.763163 H          1 MOL1         0.3682
       5    C1      19.524642   17.661333   22.187990 C.3        1 MOL1         0.0252
       6    H4      19.751438   18.119100   21.221581 H          1 MOL1         0.0971
       7    H5      19.670982   16.581824   22.094433 H          1 MOL1         0.0971
       8    C2      20.480995   18.216100   23.263122 C.3        1 MOL1        -0.1369
       9    H6      20.267313   17.725234   24.221781 H          1 MOL1         0.0997
      10    H7      21.508581   17.931080   23.003578 H          1 MOL1         0.0997
      11    C3      20.398099   19.754312   23.447581 C.3        1 MOL1        -0.1329
      12    H8      21.133657   20.059698   24.204478 H          1 MOL1         0.0997
      13    H9      19.416780   20.018029   23.864323 H          1 MOL1         0.0997
      14    C4      20.632481   20.577795   22.155304 C.3        1 MOL1        -0.1305
      15    H10     19.848965   20.358806   21.417306 H          1 MOL1         0.0997
      16    H11     20.529901   21.645163   22.396241 H          1 MOL1         0.0997
      17    C5      22.022438   20.342066   21.521828 C.3        1 MOL1        -0.2320
      18    H12     22.130496   19.312187   21.159508 H          1 MOL1         0.1008
      19    H13     22.172783   21.010965   20.664591 H          1 MOL1         0.1008
      20    H14     22.824408   20.538359   22.245204 H          1 MOL1         0.1008
@<TRIPOS>BOND
    1     1     2    1
    2     1     3    1
    3     1     4    1
    4     1     5    1
    5     5     6    1
    6     5     7    1
    7     5     8    1
    8     8     9    1
    9     8    10    1
   10     8    11    1
   11    11    12    1
   12    11    13    1
   13    11    14    1
   14    14    15    1
   15    14    16    1
   16    14    17    1
   17    17    18    1
   18    17    19    1
   19    17    20    1
@<TRIPOS>SUBSTRUCTURE
       1 MOL1            1 RESIDUE      1      MOL     
@<SCITEGIC>MOL_PROPERTY
VConf Rank
SciTegic.value.IntegerValue
732

@<SCITEGIC>MOL_PROPERTY
Conf_Id
SciTegic.value.IntegerValue
1

@<SCITEGIC>MOL_PROPERTY
Delta U+W
SciTegic.value.DoubleValue
1.032

@<SCITEGIC>MOL_PROPERTY
U+W
SciTegic.value.DoubleValue
-10.746

@<SCITEGIC>MOL_PROPERTY
Grad RMS
SciTegic.value.DoubleValue
0.000000

@<SCITEGIC>MOL_PROPERTY
U
SciTegic.value.DoubleValue
47.562

@<SCITEGIC>MOL_PROPERTY
W
SciTegic.value.DoubleValue
-58.308

@<SCITEGIC>MOL_PROPERTY
W(PB)
SciTegic.value.DoubleValue
-60.184

@<SCITEGIC>MOL_PROPERTY
W(SA)
SciTegic.value.DoubleValue
1.877

@<SCITEGIC>MOL_PROPERTY
Valence
SciTegic.value.DoubleValue
2.149

@<SCITEGIC>MOL_PROPERTY
Coulomb
SciTegic.value.DoubleValue
45.035

@<SCITEGIC>MOL_PROPERTY
VdW
SciTegic.value.DoubleValue
0.378

@<SCITEGIC>MOL_PROPERTY
VdW6
SciTegic.value.DoubleValue
-5.599

@<SCITEGIC>MOL_PROPERTY
VdW12
SciTegic.value.DoubleValue
5.978

@<SCITEGIC>MOL_PROPERTY
Bond
SciTegic.value.DoubleValue
0.185

@<SCITEGIC>MOL_PROPERTY
Angle
SciTegic.value.DoubleValue
0.935

@<SCITEGIC>MOL_PROPERTY
Pdih
SciTegic.value.DoubleValue
1.028

@<SCITEGIC>MOL_PROPERTY
Idih
SciTegic.value.DoubleValue
0.000

@<SCITEGIC>MOL_PROPERTY
Tether
SciTegic.value.DoubleValue
0.000

@<TRIPOS>MOLECULE
guest-s11_confgen4.mol2 : confsearch ligand conformer 733
          20          19           1
SMALL
USER_CHARGES
 
@<TRIPOS>ATOM
       1    N1      20.825233   20.125905   24.508036 N.4        1 MOL1        -0.5919
       2    H1      20.854796   19.551566   25.356182 H          1 MOL1         0.3682
       3    H2      21.684675   19.936968   23.984254 H          1 MOL1         0.3682
       4    H3      20.867567   21.105015   24.809524 H          1 MOL1         0.3682
       5    C1      19.586778   19.845122   23.679093 C.3        1 MOL1         0.0252
       6    H4      19.604220   20.508828   22.813234 H          1 MOL1         0.0971
       7    H5      18.717576   20.109320   24.287543 H          1 MOL1         0.0971
       8    C2      19.459364   18.374816   23.226674 C.3        1 MOL1        -0.1369
       9    H6      19.455498   17.741711   24.123882 H          1 MOL1         0.0997
      10    H7      18.482108   18.224724   22.749116 H          1 MOL1         0.0997
      11    C3      20.584511   17.888348   22.273932 C.3        1 MOL1        -0.1329
      12    H8      20.644523   16.794185   22.355356 H          1 MOL1         0.0997
      13    H9      21.562020   18.259885   22.607338 H          1 MOL1         0.0997
      14    C4      20.370581   18.230009   20.776757 C.3        1 MOL1        -0.1305
      15    H10     21.176209   17.757639   20.197293 H          1 MOL1         0.0997
      16    H11     19.435692   17.773773   20.422338 H          1 MOL1         0.0997
      17    C5      20.358019   19.741191   20.457220 C.3        1 MOL1        -0.2320
      18    H12     21.225230   20.249547   20.897991 H          1 MOL1         0.1008
      19    H13     20.391296   19.902191   19.371909 H          1 MOL1         0.1008
      20    H14     19.443390   20.220017   20.826318 H          1 MOL1         0.1008
@<TRIPOS>BOND
    1     1     2    1
    2     1     3    1
    3     1     4    1
    4     1     5    1
    5     5     6    1
    6     5     7    1
    7     5     8    1
    8     8     9    1
    9     8    10    1
   10     8    11    1
   11    11    12    1
   12    11    13    1
   13    11    14    1
   14    14    15    1
   15    14    16    1
   16    14    17    1
   17    17    18    1
   18    17    19    1
   19    17    20    1
@<TRIPOS>SUBSTRUCTURE
       1 MOL1            1 RESIDUE      1      MOL     
@<SCITEGIC>MOL_PROPERTY
VConf Rank
SciTegic.value.IntegerValue
733

@<SCITEGIC>MOL_PROPERTY
Conf_Id
SciTegic.value.IntegerValue
80

@<SCITEGIC>MOL_PROPERTY
Delta U+W
SciTegic.value.DoubleValue
2.920

@<SCITEGIC>MOL_PROPERTY
U+W
SciTegic.value.DoubleValue
-8.857

@<SCITEGIC>MOL_PROPERTY
Grad RMS
SciTegic.value.DoubleValue
0.000000

@<SCITEGIC>MOL_PROPERTY
U
SciTegic.value.DoubleValue
49.434

@<SCITEGIC>MOL_PROPERTY
W
SciTegic.value.DoubleValue
-58.292

@<SCITEGIC>MOL_PROPERTY
W(PB)
SciTegic.value.DoubleValue
-60.170

@<SCITEGIC>MOL_PROPERTY
W(SA)
SciTegic.value.DoubleValue
1.879

@<SCITEGIC>MOL_PROPERTY
Valence
SciTegic.value.DoubleValue
3.798

@<SCITEGIC>MOL_PROPERTY
Coulomb
SciTegic.value.DoubleValue
45.253

@<SCITEGIC>MOL_PROPERTY
VdW
SciTegic.value.DoubleValue
0.384

@<SCITEGIC>MOL_PROPERTY
VdW6
SciTegic.value.DoubleValue
-5.595

@<SCITEGIC>MOL_PROPERTY
VdW12
SciTegic.value.DoubleValue
5.979

@<SCITEGIC>MOL_PROPERTY
Bond
SciTegic.value.DoubleValue
0.198

@<SCITEGIC>MOL_PROPERTY
Angle
SciTegic.value.DoubleValue
1.368

@<SCITEGIC>MOL_PROPERTY
Pdih
SciTegic.value.DoubleValue
2.231

@<SCITEGIC>MOL_PROPERTY
Idih
SciTegic.value.DoubleValue
0.000

@<SCITEGIC>MOL_PROPERTY
Tether
SciTegic.value.DoubleValue
0.000

@<TRIPOS>MOLECULE
guest-s11_confgen4.mol2 : confsearch ligand conformer 734
          20          19           1
SMALL
USER_CHARGES
 
@<TRIPOS>ATOM
       1    N1      22.258674   19.018920   21.404083 N.4        1 MOL1        -0.5919
       2    H1      22.973889   19.730972   21.581677 H          1 MOL1         0.3682
       3    H2      22.723822   18.243333   20.920918 H          1 MOL1         0.3682
       4    H3      21.587051   19.422198   20.744556 H          1 MOL1         0.3682
       5    C1      21.586506   18.562401   22.684527 C.3        1 MOL1         0.0252
       6    H4      22.355572   18.108087   23.315130 H          1 MOL1         0.0971
       7    H5      20.863306   17.787171   22.426618 H          1 MOL1         0.0971
       8    C2      20.897927   19.700650   23.467455 C.3        1 MOL1        -0.1369
       9    H6      20.551957   19.317795   24.436653 H          1 MOL1         0.0997
      10    H7      21.655208   20.461625   23.698238 H          1 MOL1         0.0997
      11    C3      19.715779   20.378418   22.723492 C.3        1 MOL1        -0.1329
      12    H8      19.962057   20.533709   21.665214 H          1 MOL1         0.0997
      13    H9      19.586528   21.385256   23.144199 H          1 MOL1         0.0997
      14    C4      18.354764   19.646290   22.848669 C.3        1 MOL1        -0.1305
      15    H10     18.066282   19.578454   23.906950 H          1 MOL1         0.0997
      16    H11     17.585569   20.264340   22.364623 H          1 MOL1         0.0997
      17    C5      18.321495   18.237583   22.215924 C.3        1 MOL1        -0.2320
      18    H12     18.903505   17.520408   22.806667 H          1 MOL1         0.1008
      19    H13     17.291034   17.861497   22.175463 H          1 MOL1         0.1008
      20    H14     18.713602   18.251138   21.190825 H          1 MOL1         0.1008
@<TRIPOS>BOND
    1     1     2    1
    2     1     3    1
    3     1     4    1
    4     1     5    1
    5     5     6    1
    6     5     7    1
    7     5     8    1
    8     8     9    1
    9     8    10    1
   10     8    11    1
   11    11    12    1
   12    11    13    1
   13    11    14    1
   14    14    15    1
   15    14    16    1
   16    14    17    1
   17    17    18    1
   18    17    19    1
   19    17    20    1
@<TRIPOS>SUBSTRUCTURE
       1 MOL1            1 RESIDUE      1      MOL     
@<SCITEGIC>MOL_PROPERTY
VConf Rank
SciTegic.value.IntegerValue
734

@<SCITEGIC>MOL_PROPERTY
Conf_Id
SciTegic.value.IntegerValue
65

@<SCITEGIC>MOL_PROPERTY
Delta U+W
SciTegic.value.DoubleValue
2.949

@<SCITEGIC>MOL_PROPERTY
U+W
SciTegic.value.DoubleValue
-8.829

@<SCITEGIC>MOL_PROPERTY
Grad RMS
SciTegic.value.DoubleValue
0.000000

@<SCITEGIC>MOL_PROPERTY
U
SciTegic.value.DoubleValue
49.435

@<SCITEGIC>MOL_PROPERTY
W
SciTegic.value.DoubleValue
-58.263

@<SCITEGIC>MOL_PROPERTY
W(PB)
SciTegic.value.DoubleValue
-60.125

@<SCITEGIC>MOL_PROPERTY
W(SA)
SciTegic.value.DoubleValue
1.862

@<SCITEGIC>MOL_PROPERTY
Valence
SciTegic.value.DoubleValue
3.797

@<SCITEGIC>MOL_PROPERTY
Coulomb
SciTegic.value.DoubleValue
45.253

@<SCITEGIC>MOL_PROPERTY
VdW
SciTegic.value.DoubleValue
0.384

@<SCITEGIC>MOL_PROPERTY
VdW6
SciTegic.value.DoubleValue
-5.596

@<SCITEGIC>MOL_PROPERTY
VdW12
SciTegic.value.DoubleValue
5.980

@<SCITEGIC>MOL_PROPERTY
Bond
SciTegic.value.DoubleValue
0.198

@<SCITEGIC>MOL_PROPERTY
Angle
SciTegic.value.DoubleValue
1.369

@<SCITEGIC>MOL_PROPERTY
Pdih
SciTegic.value.DoubleValue
2.230

@<SCITEGIC>MOL_PROPERTY
Idih
SciTegic.value.DoubleValue
0.000

@<SCITEGIC>MOL_PROPERTY
Tether
SciTegic.value.DoubleValue
0.000

@<TRIPOS>MOLECULE
guest-s11_confgen4.mol2 : confsearch ligand conformer 735
          20          19           1
SMALL
USER_CHARGES
 
@<TRIPOS>ATOM
       1    N1      18.545342   19.935928   21.484094 N.4        1 MOL1        -0.5919
       2    H1      18.299473   20.771539   20.942815 H          1 MOL1         0.3682
       3    H2      19.321647   19.475106   20.999616 H          1 MOL1         0.3682
       4    H3      17.739658   19.304056   21.439180 H          1 MOL1         0.3682
       5    C1      18.912082   20.278947   22.914966 C.3        1 MOL1         0.0252
       6    H4      18.038636   20.761785   23.361598 H          1 MOL1         0.0971
       7    H5      19.730924   21.003212   22.903189 H          1 MOL1         0.0971
       8    C2      19.304957   19.057837   23.771090 C.3        1 MOL1        -0.1369
       9    H6      19.142767   19.322838   24.824313 H          1 MOL1         0.0997
      10    H7      18.621258   18.223684   23.564801 H          1 MOL1         0.0997
      11    C3      20.778239   18.591985   23.621815 C.3        1 MOL1        -0.1329
      12    H8      20.931571   17.759071   24.322006 H          1 MOL1         0.0997
      13    H9      21.458234   19.386766   23.958559 H          1 MOL1         0.0997
      14    C4      21.184246   18.109150   22.205994 C.3        1 MOL1        -0.1305
      15    H10     21.895387   17.277512   22.310471 H          1 MOL1         0.0997
      16    H11     20.316312   17.690484   21.679049 H          1 MOL1         0.0997
      17    C5      21.866616   19.210818   21.360703 C.3        1 MOL1        -0.2320
      18    H12     21.249039   20.110474   21.266817 H          1 MOL1         0.1008
      19    H13     22.819042   19.512214   21.816078 H          1 MOL1         0.1008
      20    H14     22.085994   18.842811   20.349949 H          1 MOL1         0.1008
@<TRIPOS>BOND
    1     1     2    1
    2     1     3    1
    3     1     4    1
    4     1     5    1
    5     5     6    1
    6     5     7    1
    7     5     8    1
    8     8     9    1
    9     8    10    1
   10     8    11    1
   11    11    12    1
   12    11    13    1
   13    11    14    1
   14    14    15    1
   15    14    16    1
   16    14    17    1
   17    17    18    1
   18    17    19    1
   19    17    20    1
@<TRIPOS>SUBSTRUCTURE
       1 MOL1            1 RESIDUE      1      MOL     
@<SCITEGIC>MOL_PROPERTY
VConf Rank
SciTegic.value.IntegerValue
735

@<SCITEGIC>MOL_PROPERTY
Conf_Id
SciTegic.value.IntegerValue
77

@<SCITEGIC>MOL_PROPERTY
Delta U+W
SciTegic.value.DoubleValue
5.366

@<SCITEGIC>MOL_PROPERTY
U+W
SciTegic.value.DoubleValue
-6.412

@<SCITEGIC>MOL_PROPERTY
Grad RMS
SciTegic.value.DoubleValue
0.000000

@<SCITEGIC>MOL_PROPERTY
U
SciTegic.value.DoubleValue
51.542

@<SCITEGIC>MOL_PROPERTY
W
SciTegic.value.DoubleValue
-57.954

@<SCITEGIC>MOL_PROPERTY
W(PB)
SciTegic.value.DoubleValue
-59.811

@<SCITEGIC>MOL_PROPERTY
W(SA)
SciTegic.value.DoubleValue
1.857

@<SCITEGIC>MOL_PROPERTY
Valence
SciTegic.value.DoubleValue
5.347

@<SCITEGIC>MOL_PROPERTY
Coulomb
SciTegic.value.DoubleValue
45.870

@<SCITEGIC>MOL_PROPERTY
VdW
SciTegic.value.DoubleValue
0.325

@<SCITEGIC>MOL_PROPERTY
VdW6
SciTegic.value.DoubleValue
-6.161

@<SCITEGIC>MOL_PROPERTY
VdW12
SciTegic.value.DoubleValue
6.486

@<SCITEGIC>MOL_PROPERTY
Bond
SciTegic.value.DoubleValue
0.201

@<SCITEGIC>MOL_PROPERTY
Angle
SciTegic.value.DoubleValue
1.484

@<SCITEGIC>MOL_PROPERTY
Pdih
SciTegic.value.DoubleValue
3.662

@<SCITEGIC>MOL_PROPERTY
Idih
SciTegic.value.DoubleValue
0.000

@<SCITEGIC>MOL_PROPERTY
Tether
SciTegic.value.DoubleValue
0.000

@<TRIPOS>MOLECULE
guest-s11_confgen4.mol2 : confsearch ligand conformer 736
          20          19           1
SMALL
USER_CHARGES
 
@<TRIPOS>ATOM
       1    N1      18.614565   17.935585   22.051048 N.4        1 MOL1        -0.5919
       2    H1      17.791930   18.459739   21.736500 H          1 MOL1         0.3682
       3    H2      19.356520   18.090070   21.361582 H          1 MOL1         0.3682
       4    H3      18.366000   16.941274   22.015763 H          1 MOL1         0.3682
       5    C1      19.053448   18.357939   23.439774 C.3        1 MOL1         0.0252
       6    H4      19.889019   17.725403   23.751094 H          1 MOL1         0.0971
       7    H5      18.213336   18.165478   24.112597 H          1 MOL1         0.0971
       8    C2      19.453143   19.843673   23.545831 C.3        1 MOL1        -0.1369
       9    H6      18.740011   20.461530   22.984132 H          1 MOL1         0.0997
      10    H7      19.344926   20.143995   24.596501 H          1 MOL1         0.0997
      11    C3      20.906020   20.170567   23.107481 C.3        1 MOL1        -0.1329
      12    H8      21.620283   19.652392   23.762300 H          1 MOL1         0.0997
      13    H9      21.069302   21.242483   23.285977 H          1 MOL1         0.0997
      14    C4      21.236086   19.876093   21.621930 C.3        1 MOL1        -0.1305
      15    H10     20.335197   19.973708   21.001340 H          1 MOL1         0.0997
      16    H11     21.929960   20.647122   21.258183 H          1 MOL1         0.0997
      17    C5      21.907643   18.498416   21.410179 C.3        1 MOL1        -0.2320
      18    H12     22.072400   18.308436   20.341562 H          1 MOL1         0.1008
      19    H13     22.886718   18.466131   21.905853 H          1 MOL1         0.1008
      20    H14     21.309368   17.673834   21.812330 H          1 MOL1         0.1008
@<TRIPOS>BOND
    1     1     2    1
    2     1     3    1
    3     1     4    1
    4     1     5    1
    5     5     6    1
    6     5     7    1
    7     5     8    1
    8     8     9    1
    9     8    10    1
   10     8    11    1
   11    11    12    1
   12    11    13    1
   13    11    14    1
   14    14    15    1
   15    14    16    1
   16    14    17    1
   17    17    18    1
   18    17    19    1
   19    17    20    1
@<TRIPOS>SUBSTRUCTURE
       1 MOL1            1 RESIDUE      1      MOL     
@<SCITEGIC>MOL_PROPERTY
VConf Rank
SciTegic.value.IntegerValue
736

@<SCITEGIC>MOL_PROPERTY
Conf_Id
SciTegic.value.IntegerValue
67

@<SCITEGIC>MOL_PROPERTY
Delta U+W
SciTegic.value.DoubleValue
5.353

@<SCITEGIC>MOL_PROPERTY
U+W
SciTegic.value.DoubleValue
-6.425

@<SCITEGIC>MOL_PROPERTY
Grad RMS
SciTegic.value.DoubleValue
0.000000

@<SCITEGIC>MOL_PROPERTY
U
SciTegic.value.DoubleValue
51.541

@<SCITEGIC>MOL_PROPERTY
W
SciTegic.value.DoubleValue
-57.966

@<SCITEGIC>MOL_PROPERTY
W(PB)
SciTegic.value.DoubleValue
-59.821

@<SCITEGIC>MOL_PROPERTY
W(SA)
SciTegic.value.DoubleValue
1.855

@<SCITEGIC>MOL_PROPERTY
Valence
SciTegic.value.DoubleValue
5.347

@<SCITEGIC>MOL_PROPERTY
Coulomb
SciTegic.value.DoubleValue
45.870

@<SCITEGIC>MOL_PROPERTY
VdW
SciTegic.value.DoubleValue
0.325

@<SCITEGIC>MOL_PROPERTY
VdW6
SciTegic.value.DoubleValue
-6.161

@<SCITEGIC>MOL_PROPERTY
VdW12
SciTegic.value.DoubleValue
6.486

@<SCITEGIC>MOL_PROPERTY
Bond
SciTegic.value.DoubleValue
0.201

@<SCITEGIC>MOL_PROPERTY
Angle
SciTegic.value.DoubleValue
1.485

@<SCITEGIC>MOL_PROPERTY
Pdih
SciTegic.value.DoubleValue
3.662

@<SCITEGIC>MOL_PROPERTY
Idih
SciTegic.value.DoubleValue
0.000

@<SCITEGIC>MOL_PROPERTY
Tether
SciTegic.value.DoubleValue
0.000

@<TRIPOS>MOLECULE
guest-s11_confgen4.mol2 : confsearch ligand conformer 737
          20          19           1
SMALL
USER_CHARGES
 
@<TRIPOS>ATOM
       1    N1      20.972137   18.269802   25.452853 N.4        1 MOL1        -0.5919
       2    H1      20.605793   19.091945   25.943017 H          1 MOL1         0.3682
       3    H2      20.827409   17.465538   26.072378 H          1 MOL1         0.3682
       4    H3      21.985110   18.398254   25.364694 H          1 MOL1         0.3682
       5    C1      20.306924   18.069982   24.105985 C.3        1 MOL1         0.0252
       6    H4      19.239008   17.909750   24.277440 H          1 MOL1         0.0971
       7    H5      20.721901   17.164160   23.655657 H          1 MOL1         0.0971
       8    C2      20.505082   19.260653   23.150840 C.3        1 MOL1        -0.1369
       9    H6      20.101311   20.170988   23.613795 H          1 MOL1         0.0997
      10    H7      21.579100   19.427981   22.994144 H          1 MOL1         0.0997
      11    C3      19.812618   19.017088   21.791465 C.3        1 MOL1        -0.1329
      12    H8      18.739208   18.844865   21.952467 H          1 MOL1         0.0997
      13    H9      20.215281   18.102795   21.333510 H          1 MOL1         0.0997
      14    C4      20.004892   20.206484   20.824043 C.3        1 MOL1        -0.1305
      15    H10     19.601531   21.122881   21.277436 H          1 MOL1         0.0997
      16    H11     21.077380   20.380863   20.658482 H          1 MOL1         0.0997
      17    C5      19.311346   19.958733   19.467360 C.3        1 MOL1        -0.2320
      18    H12     18.230698   19.814797   19.596583 H          1 MOL1         0.1008
      19    H13     19.458907   20.813555   18.794642 H          1 MOL1         0.1008
      20    H14     19.718157   19.067073   18.972728 H          1 MOL1         0.1008
@<TRIPOS>BOND
    1     1     2    1
    2     1     3    1
    3     1     4    1
    4     1     5    1
    5     5     6    1
    6     5     7    1
    7     5     8    1
    8     8     9    1
    9     8    10    1
   10     8    11    1
   11    11    12    1
   12    11    13    1
   13    11    14    1
   14    14    15    1
   15    14    16    1
   16    14    17    1
   17    17    18    1
   18    17    19    1
   19    17    20    1
@<TRIPOS>SUBSTRUCTURE
       1 MOL1            1 RESIDUE      1      MOL     
@<SCITEGIC>MOL_PROPERTY
VConf Rank
SciTegic.value.IntegerValue
737

@<SCITEGIC>MOL_PROPERTY
Conf_Id
SciTegic.value.IntegerValue
72

@<SCITEGIC>MOL_PROPERTY
Delta U+W
SciTegic.value.DoubleValue
0.000

@<SCITEGIC>MOL_PROPERTY
U+W
SciTegic.value.DoubleValue
-11.778

@<SCITEGIC>MOL_PROPERTY
Grad RMS
SciTegic.value.DoubleValue
0.000000

@<SCITEGIC>MOL_PROPERTY
U
SciTegic.value.DoubleValue
45.772

@<SCITEGIC>MOL_PROPERTY
W
SciTegic.value.DoubleValue
-57.550

@<SCITEGIC>MOL_PROPERTY
W(PB)
SciTegic.value.DoubleValue
-59.511

@<SCITEGIC>MOL_PROPERTY
W(SA)
SciTegic.value.DoubleValue
1.961

@<SCITEGIC>MOL_PROPERTY
Valence
SciTegic.value.DoubleValue
1.299

@<SCITEGIC>MOL_PROPERTY
Coulomb
SciTegic.value.DoubleValue
44.177

@<SCITEGIC>MOL_PROPERTY
VdW
SciTegic.value.DoubleValue
0.297

@<SCITEGIC>MOL_PROPERTY
VdW6
SciTegic.value.DoubleValue
-3.490

@<SCITEGIC>MOL_PROPERTY
VdW12
SciTegic.value.DoubleValue
3.786

@<SCITEGIC>MOL_PROPERTY
Bond
SciTegic.value.DoubleValue
0.096

@<SCITEGIC>MOL_PROPERTY
Angle
SciTegic.value.DoubleValue
0.381

@<SCITEGIC>MOL_PROPERTY
Pdih
SciTegic.value.DoubleValue
0.822

@<SCITEGIC>MOL_PROPERTY
Idih
SciTegic.value.DoubleValue
0.000

@<SCITEGIC>MOL_PROPERTY
Tether
SciTegic.value.DoubleValue
0.000

@<TRIPOS>MOLECULE
guest-s11_confgen4.mol2 : confsearch ligand conformer 738
          20          19           1
SMALL
USER_CHARGES
 
@<TRIPOS>ATOM
       1    N1      22.204117   20.383014   24.257430 N.4        1 MOL1        -0.5919
       2    H1      22.941418   20.142782   23.587346 H          1 MOL1         0.3682
       3    H2      21.965278   21.367560   24.102547 H          1 MOL1         0.3682
       4    H3      22.620845   20.321879   25.192407 H          1 MOL1         0.3682
       5    C1      20.996084   19.478502   24.119271 C.3        1 MOL1         0.0252
       6    H4      20.267337   19.770348   24.880354 H          1 MOL1         0.0971
       7    H5      21.316290   18.453660   24.325845 H          1 MOL1         0.0971
       8    C2      20.345204   19.546533   22.726075 C.3        1 MOL1        -0.1369
       9    H6      20.039645   20.580179   22.516263 H          1 MOL1         0.0997
      10    H7      21.089933   19.269106   21.969451 H          1 MOL1         0.0997
      11    C3      19.116909   18.610895   22.631203 C.3        1 MOL1        -0.1329
      12    H8      18.418180   18.854330   23.443766 H          1 MOL1         0.0997
      13    H9      19.430483   17.570569   22.795460 H          1 MOL1         0.0997
      14    C4      18.361696   18.717273   21.283981 C.3        1 MOL1        -0.1305
      15    H10     17.451441   18.103947   21.340603 H          1 MOL1         0.0997
      16    H11     18.025281   19.751691   21.126877 H          1 MOL1         0.0997
      17    C5      19.199982   18.253418   20.070867 C.3        1 MOL1        -0.2320
      18    H12     19.572354   17.230960   20.215546 H          1 MOL1         0.1008
      19    H13     18.591232   18.262224   19.157468 H          1 MOL1         0.1008
      20    H14     20.060320   18.912026   19.899180 H          1 MOL1         0.1008
@<TRIPOS>BOND
    1     1     2    1
    2     1     3    1
    3     1     4    1
    4     1     5    1
    5     5     6    1
    6     5     7    1
    7     5     8    1
    8     8     9    1
    9     8    10    1
   10     8    11    1
   11    11    12    1
   12    11    13    1
   13    11    14    1
   14    14    15    1
   15    14    16    1
   16    14    17    1
   17    17    18    1
   18    17    19    1
   19    17    20    1
@<TRIPOS>SUBSTRUCTURE
       1 MOL1            1 RESIDUE      1      MOL     
@<SCITEGIC>MOL_PROPERTY
VConf Rank
SciTegic.value.IntegerValue
738

@<SCITEGIC>MOL_PROPERTY
Conf_Id
SciTegic.value.IntegerValue
42

@<SCITEGIC>MOL_PROPERTY
Delta U+W
SciTegic.value.DoubleValue
0.508

@<SCITEGIC>MOL_PROPERTY
U+W
SciTegic.value.DoubleValue
-11.270

@<SCITEGIC>MOL_PROPERTY
Grad RMS
SciTegic.value.DoubleValue
0.000000

@<SCITEGIC>MOL_PROPERTY
U
SciTegic.value.DoubleValue
46.486

@<SCITEGIC>MOL_PROPERTY
W
SciTegic.value.DoubleValue
-57.756

@<SCITEGIC>MOL_PROPERTY
W(PB)
SciTegic.value.DoubleValue
-59.705

@<SCITEGIC>MOL_PROPERTY
W(SA)
SciTegic.value.DoubleValue
1.949

@<SCITEGIC>MOL_PROPERTY
Valence
SciTegic.value.DoubleValue
1.806

@<SCITEGIC>MOL_PROPERTY
Coulomb
SciTegic.value.DoubleValue
44.248

@<SCITEGIC>MOL_PROPERTY
VdW
SciTegic.value.DoubleValue
0.433

@<SCITEGIC>MOL_PROPERTY
VdW6
SciTegic.value.DoubleValue
-4.089

@<SCITEGIC>MOL_PROPERTY
VdW12
SciTegic.value.DoubleValue
4.522

@<SCITEGIC>MOL_PROPERTY
Bond
SciTegic.value.DoubleValue
0.131

@<SCITEGIC>MOL_PROPERTY
Angle
SciTegic.value.DoubleValue
0.628

@<SCITEGIC>MOL_PROPERTY
Pdih
SciTegic.value.DoubleValue
1.047

@<SCITEGIC>MOL_PROPERTY
Idih
SciTegic.value.DoubleValue
0.000

@<SCITEGIC>MOL_PROPERTY
Tether
SciTegic.value.DoubleValue
0.000

@<TRIPOS>MOLECULE
guest-s11_confgen4.mol2 : confsearch ligand conformer 739
          20          19           1
SMALL
USER_CHARGES
 
@<TRIPOS>ATOM
       1    N1      23.036776   18.207646   22.602759 N.4        1 MOL1        -0.5919
       2    H1      22.987786   17.685886   23.483515 H          1 MOL1         0.3682
       3    H2      22.894512   17.532972   21.844531 H          1 MOL1         0.3682
       4    H3      23.997986   18.554182   22.515751 H          1 MOL1         0.3682
       5    C1      22.025368   19.335200   22.555240 C.3        1 MOL1         0.0252
       6    H4      22.153778   19.864156   21.606966 H          1 MOL1         0.0971
       7    H5      22.254806   20.028681   23.368836 H          1 MOL1         0.0971
       8    C2      20.570562   18.849144   22.683917 C.3        1 MOL1        -0.1369
       9    H6      20.357116   18.140832   21.873483 H          1 MOL1         0.0997
      10    H7      20.450098   18.304925   23.630028 H          1 MOL1         0.0997
      11    C3      19.574335   20.031534   22.632742 C.3        1 MOL1        -0.1329
      12    H8      19.662559   20.548367   21.666984 H          1 MOL1         0.0997
      13    H9      19.851049   20.766007   23.401977 H          1 MOL1         0.0997
      14    C4      18.102454   19.609741   22.861489 C.3        1 MOL1        -0.1305
      15    H10     18.005138   19.113475   23.837260 H          1 MOL1         0.0997
      16    H11     17.480496   20.514364   22.914061 H          1 MOL1         0.0997
      17    C5      17.547485   18.687730   21.751787 C.3        1 MOL1        -0.2320
      18    H12     18.060026   17.717905   21.738949 H          1 MOL1         0.1008
      19    H13     16.479162   18.493353   21.912580 H          1 MOL1         0.1008
      20    H14     17.658847   19.149314   20.762064 H          1 MOL1         0.1008
@<TRIPOS>BOND
    1     1     2    1
    2     1     3    1
    3     1     4    1
    4     1     5    1
    5     5     6    1
    6     5     7    1
    7     5     8    1
    8     8     9    1
    9     8    10    1
   10     8    11    1
   11    11    12    1
   12    11    13    1
   13    11    14    1
   14    14    15    1
   15    14    16    1
   16    14    17    1
   17    17    18    1
   18    17    19    1
   19    17    20    1
@<TRIPOS>SUBSTRUCTURE
       1 MOL1            1 RESIDUE      1      MOL     
@<SCITEGIC>MOL_PROPERTY
VConf Rank
SciTegic.value.IntegerValue
739

@<SCITEGIC>MOL_PROPERTY
Conf_Id
SciTegic.value.IntegerValue
41

@<SCITEGIC>MOL_PROPERTY
Delta U+W
SciTegic.value.DoubleValue
0.515

@<SCITEGIC>MOL_PROPERTY
U+W
SciTegic.value.DoubleValue
-11.263

@<SCITEGIC>MOL_PROPERTY
Grad RMS
SciTegic.value.DoubleValue
0.000000

@<SCITEGIC>MOL_PROPERTY
U
SciTegic.value.DoubleValue
46.486

@<SCITEGIC>MOL_PROPERTY
W
SciTegic.value.DoubleValue
-57.749

@<SCITEGIC>MOL_PROPERTY
W(PB)
SciTegic.value.DoubleValue
-59.685

@<SCITEGIC>MOL_PROPERTY
W(SA)
SciTegic.value.DoubleValue
1.936

@<SCITEGIC>MOL_PROPERTY
Valence
SciTegic.value.DoubleValue
1.806

@<SCITEGIC>MOL_PROPERTY
Coulomb
SciTegic.value.DoubleValue
44.248

@<SCITEGIC>MOL_PROPERTY
VdW
SciTegic.value.DoubleValue
0.433

@<SCITEGIC>MOL_PROPERTY
VdW6
SciTegic.value.DoubleValue
-4.089

@<SCITEGIC>MOL_PROPERTY
VdW12
SciTegic.value.DoubleValue
4.522

@<SCITEGIC>MOL_PROPERTY
Bond
SciTegic.value.DoubleValue
0.131

@<SCITEGIC>MOL_PROPERTY
Angle
SciTegic.value.DoubleValue
0.628

@<SCITEGIC>MOL_PROPERTY
Pdih
SciTegic.value.DoubleValue
1.047

@<SCITEGIC>MOL_PROPERTY
Idih
SciTegic.value.DoubleValue
0.000

@<SCITEGIC>MOL_PROPERTY
Tether
SciTegic.value.DoubleValue
0.000

@<TRIPOS>MOLECULE
guest-s11_confgen4.mol2 : confsearch ligand conformer 740
          20          19           1
SMALL
USER_CHARGES
 
@<TRIPOS>ATOM
       1    N1      22.106439   19.852521   20.650502 N.4        1 MOL1        -0.5919
       2    H1      23.050160   20.185500   20.426858 H          1 MOL1         0.3682
       3    H2      22.134544   18.829440   20.612357 H          1 MOL1         0.3682
       4    H3      21.492408   20.167146   19.892762 H          1 MOL1         0.3682
       5    C1      21.638186   20.355145   22.002638 C.3        1 MOL1         0.0252
       6    H4      21.676879   21.447671   21.980490 H          1 MOL1         0.0971
       7    H5      22.345921   20.005490   22.759139 H          1 MOL1         0.0971
       8    C2      20.212937   19.903627   22.377690 C.3        1 MOL1        -0.1369
       9    H6      19.930329   20.412922   23.307400 H          1 MOL1         0.0997
      10    H7      19.507024   20.241162   21.607335 H          1 MOL1         0.0997
      11    C3      20.101163   18.369631   22.566050 C.3        1 MOL1        -0.1329
      12    H8      20.793708   18.042421   23.353948 H          1 MOL1         0.0997
      13    H9      20.420052   17.864076   21.645001 H          1 MOL1         0.0997
      14    C4      18.668116   17.893193   22.907171 C.3        1 MOL1        -0.1305
      15    H10     17.973634   18.206313   22.115012 H          1 MOL1         0.0997
      16    H11     18.653982   16.794226   22.910475 H          1 MOL1         0.0997
      17    C5      18.158900   18.400366   24.275834 C.3        1 MOL1        -0.2320
      18    H12     18.035471   19.490314   24.282598 H          1 MOL1         0.1008
      19    H13     17.182197   17.957492   24.510062 H          1 MOL1         0.1008
      20    H14     18.852481   18.127093   25.081607 H          1 MOL1         0.1008
@<TRIPOS>BOND
    1     1     2    1
    2     1     3    1
    3     1     4    1
    4     1     5    1
    5     5     6    1
    6     5     7    1
    7     5     8    1
    8     8     9    1
    9     8    10    1
   10     8    11    1
   11    11    12    1
   12    11    13    1
   13    11    14    1
   14    14    15    1
   15    14    16    1
   16    14    17    1
   17    17    18    1
   18    17    19    1
   19    17    20    1
@<TRIPOS>SUBSTRUCTURE
       1 MOL1            1 RESIDUE      1      MOL     
@<SCITEGIC>MOL_PROPERTY
VConf Rank
SciTegic.value.IntegerValue
740

@<SCITEGIC>MOL_PROPERTY
Conf_Id
SciTegic.value.IntegerValue
33

@<SCITEGIC>MOL_PROPERTY
Delta U+W
SciTegic.value.DoubleValue
0.703

@<SCITEGIC>MOL_PROPERTY
U+W
SciTegic.value.DoubleValue
-11.075

@<SCITEGIC>MOL_PROPERTY
Grad RMS
SciTegic.value.DoubleValue
0.000000

@<SCITEGIC>MOL_PROPERTY
U
SciTegic.value.DoubleValue
47.080

@<SCITEGIC>MOL_PROPERTY
W
SciTegic.value.DoubleValue
-58.154

@<SCITEGIC>MOL_PROPERTY
W(PB)
SciTegic.value.DoubleValue
-60.053

@<SCITEGIC>MOL_PROPERTY
W(SA)
SciTegic.value.DoubleValue
1.899

@<SCITEGIC>MOL_PROPERTY
Valence
SciTegic.value.DoubleValue
1.943

@<SCITEGIC>MOL_PROPERTY
Coulomb
SciTegic.value.DoubleValue
44.572

@<SCITEGIC>MOL_PROPERTY
VdW
SciTegic.value.DoubleValue
0.565

@<SCITEGIC>MOL_PROPERTY
VdW6
SciTegic.value.DoubleValue
-4.575

@<SCITEGIC>MOL_PROPERTY
VdW12
SciTegic.value.DoubleValue
5.139

@<SCITEGIC>MOL_PROPERTY
Bond
SciTegic.value.DoubleValue
0.158

@<SCITEGIC>MOL_PROPERTY
Angle
SciTegic.value.DoubleValue
0.700

@<SCITEGIC>MOL_PROPERTY
Pdih
SciTegic.value.DoubleValue
1.085

@<SCITEGIC>MOL_PROPERTY
Idih
SciTegic.value.DoubleValue
0.000

@<SCITEGIC>MOL_PROPERTY
Tether
SciTegic.value.DoubleValue
0.000

@<TRIPOS>MOLECULE
guest-s11_confgen4.mol2 : confsearch ligand conformer 741
          20          19           1
SMALL
USER_CHARGES
 
@<TRIPOS>ATOM
       1    N1      22.247806   18.475441   24.142430 N.4        1 MOL1        -0.5919
       2    H1      22.619206   18.197177   25.056832 H          1 MOL1         0.3682
       3    H2      22.887456   18.100852   23.434811 H          1 MOL1         0.3682
       4    H3      22.307939   19.496731   24.094579 H          1 MOL1         0.3682
       5    C1      20.828124   17.982566   23.938133 C.3        1 MOL1         0.0252
       6    H4      20.205867   18.398077   24.735372 H          1 MOL1         0.0971
       7    H5      20.837306   16.894555   24.046524 H          1 MOL1         0.0971
       8    C2      20.229555   18.352615   22.566769 C.3        1 MOL1        -0.1369
       9    H6      20.865957   17.948895   21.768210 H          1 MOL1         0.0997
      10    H7      19.257059   17.852970   22.476137 H          1 MOL1         0.0997
      11    C3      20.052127   19.881080   22.383927 C.3        1 MOL1        -0.1329
      12    H8      21.022090   20.379523   22.511744 H          1 MOL1         0.0997
      13    H9      19.396199   20.274181   23.173038 H          1 MOL1         0.0997
      14    C4      19.485874   20.274521   20.997732 C.3        1 MOL1        -0.1305
      15    H10     19.499534   21.369988   20.909940 H          1 MOL1         0.0997
      16    H11     20.145907   19.895210   20.205049 H          1 MOL1         0.0997
      17    C5      18.042908   19.775091   20.756521 C.3        1 MOL1        -0.2320
      18    H12     17.368629   20.114901   21.553316 H          1 MOL1         0.1008
      19    H13     17.657292   20.161239   19.804084 H          1 MOL1         0.1008
      20    H14     17.996618   18.680122   20.709907 H          1 MOL1         0.1008
@<TRIPOS>BOND
    1     1     2    1
    2     1     3    1
    3     1     4    1
    4     1     5    1
    5     5     6    1
    6     5     7    1
    7     5     8    1
    8     8     9    1
    9     8    10    1
   10     8    11    1
   11    11    12    1
   12    11    13    1
   13    11    14    1
   14    14    15    1
   15    14    16    1
   16    14    17    1
   17    17    18    1
   18    17    19    1
   19    17    20    1
@<TRIPOS>SUBSTRUCTURE
       1 MOL1            1 RESIDUE      1      MOL     
@<SCITEGIC>MOL_PROPERTY
VConf Rank
SciTegic.value.IntegerValue
741

@<SCITEGIC>MOL_PROPERTY
Conf_Id
SciTegic.value.IntegerValue
24

@<SCITEGIC>MOL_PROPERTY
Delta U+W
SciTegic.value.DoubleValue
0.847

@<SCITEGIC>MOL_PROPERTY
U+W
SciTegic.value.DoubleValue
-10.931

@<SCITEGIC>MOL_PROPERTY
Grad RMS
SciTegic.value.DoubleValue
0.000000

@<SCITEGIC>MOL_PROPERTY
U
SciTegic.value.DoubleValue
47.080

@<SCITEGIC>MOL_PROPERTY
W
SciTegic.value.DoubleValue
-58.011

@<SCITEGIC>MOL_PROPERTY
W(PB)
SciTegic.value.DoubleValue
-59.914

@<SCITEGIC>MOL_PROPERTY
W(SA)
SciTegic.value.DoubleValue
1.903

@<SCITEGIC>MOL_PROPERTY
Valence
SciTegic.value.DoubleValue
1.943

@<SCITEGIC>MOL_PROPERTY
Coulomb
SciTegic.value.DoubleValue
44.572

@<SCITEGIC>MOL_PROPERTY
VdW
SciTegic.value.DoubleValue
0.565

@<SCITEGIC>MOL_PROPERTY
VdW6
SciTegic.value.DoubleValue
-4.575

@<SCITEGIC>MOL_PROPERTY
VdW12
SciTegic.value.DoubleValue
5.140

@<SCITEGIC>MOL_PROPERTY
Bond
SciTegic.value.DoubleValue
0.158

@<SCITEGIC>MOL_PROPERTY
Angle
SciTegic.value.DoubleValue
0.700

@<SCITEGIC>MOL_PROPERTY
Pdih
SciTegic.value.DoubleValue
1.085

@<SCITEGIC>MOL_PROPERTY
Idih
SciTegic.value.DoubleValue
0.000

@<SCITEGIC>MOL_PROPERTY
Tether
SciTegic.value.DoubleValue
0.000

@<TRIPOS>MOLECULE
guest-s11_confgen4.mol2 : confsearch ligand conformer 742
          20          19           1
SMALL
USER_CHARGES
 
@<TRIPOS>ATOM
       1    N1      21.901792   17.139469   22.855144 N.4        1 MOL1        -0.5919
       2    H1      22.347561   16.570725   22.127607 H          1 MOL1         0.3682
       3    H2      22.617826   17.779637   23.212496 H          1 MOL1         0.3682
       4    H3      21.657053   16.503620   23.620721 H          1 MOL1         0.3682
       5    C1      20.690957   17.881762   22.326743 C.3        1 MOL1         0.0252
       6    H4      19.985116   17.143238   21.937194 H          1 MOL1         0.0971
       7    H5      21.019972   18.513833   21.497756 H          1 MOL1         0.0971
       8    C2      19.997554   18.747256   23.395732 C.3        1 MOL1        -0.1369
       9    H6      19.708472   18.109663   24.241702 H          1 MOL1         0.0997
      10    H7      20.707848   19.483011   23.793980 H          1 MOL1         0.0997
      11    C3      18.735102   19.466523   22.858269 C.3        1 MOL1        -0.1329
      12    H8      18.285994   20.053197   23.671520 H          1 MOL1         0.0997
      13    H9      17.985857   18.712081   22.580883 H          1 MOL1         0.0997
      14    C4      18.982981   20.394146   21.641184 C.3        1 MOL1        -0.1305
      15    H10     19.333310   19.806914   20.781414 H          1 MOL1         0.0997
      16    H11     18.023379   20.833500   21.334567 H          1 MOL1         0.0997
      17    C5      19.982771   21.536301   21.932578 C.3        1 MOL1        -0.2320
      18    H12     20.051712   22.215507   21.073026 H          1 MOL1         0.1008
      19    H13     19.665529   22.126612   22.801983 H          1 MOL1         0.1008
      20    H14     20.990497   21.149296   22.128412 H          1 MOL1         0.1008
@<TRIPOS>BOND
    1     1     2    1
    2     1     3    1
    3     1     4    1
    4     1     5    1
    5     5     6    1
    6     5     7    1
    7     5     8    1
    8     8     9    1
    9     8    10    1
   10     8    11    1
   11    11    12    1
   12    11    13    1
   13    11    14    1
   14    14    15    1
   15    14    16    1
   16    14    17    1
   17    17    18    1
   18    17    19    1
   19    17    20    1
@<TRIPOS>SUBSTRUCTURE
       1 MOL1            1 RESIDUE      1      MOL     
@<SCITEGIC>MOL_PROPERTY
VConf Rank
SciTegic.value.IntegerValue
742

@<SCITEGIC>MOL_PROPERTY
Conf_Id
SciTegic.value.IntegerValue
64

@<SCITEGIC>MOL_PROPERTY
Delta U+W
SciTegic.value.DoubleValue
0.707

@<SCITEGIC>MOL_PROPERTY
U+W
SciTegic.value.DoubleValue
-11.070

@<SCITEGIC>MOL_PROPERTY
Grad RMS
SciTegic.value.DoubleValue
0.000000

@<SCITEGIC>MOL_PROPERTY
U
SciTegic.value.DoubleValue
47.077

@<SCITEGIC>MOL_PROPERTY
W
SciTegic.value.DoubleValue
-58.148

@<SCITEGIC>MOL_PROPERTY
W(PB)
SciTegic.value.DoubleValue
-60.054

@<SCITEGIC>MOL_PROPERTY
W(SA)
SciTegic.value.DoubleValue
1.906

@<SCITEGIC>MOL_PROPERTY
Valence
SciTegic.value.DoubleValue
2.039

@<SCITEGIC>MOL_PROPERTY
Coulomb
SciTegic.value.DoubleValue
44.655

@<SCITEGIC>MOL_PROPERTY
VdW
SciTegic.value.DoubleValue
0.383

@<SCITEGIC>MOL_PROPERTY
VdW6
SciTegic.value.DoubleValue
-4.912

@<SCITEGIC>MOL_PROPERTY
VdW12
SciTegic.value.DoubleValue
5.295

@<SCITEGIC>MOL_PROPERTY
Bond
SciTegic.value.DoubleValue
0.159

@<SCITEGIC>MOL_PROPERTY
Angle
SciTegic.value.DoubleValue
0.856

@<SCITEGIC>MOL_PROPERTY
Pdih
SciTegic.value.DoubleValue
1.024

@<SCITEGIC>MOL_PROPERTY
Idih
SciTegic.value.DoubleValue
0.000

@<SCITEGIC>MOL_PROPERTY
Tether
SciTegic.value.DoubleValue
0.000

@<TRIPOS>MOLECULE
guest-s11_confgen4.mol2 : confsearch ligand conformer 743
          20          19           1
SMALL
USER_CHARGES
 
@<TRIPOS>ATOM
       1    N1      18.841787   16.678378   22.567549 N.4        1 MOL1        -0.5919
       2    H1      17.892448   16.719978   22.183710 H          1 MOL1         0.3682
       3    H2      19.443967   16.281548   21.839450 H          1 MOL1         0.3682
       4    H3      18.821330   16.002021   23.338011 H          1 MOL1         0.3682
       5    C1      19.327498   18.038877   23.025209 C.3        1 MOL1         0.0252
       6    H4      20.327682   17.913527   23.448179 H          1 MOL1         0.0971
       7    H5      18.659877   18.387119   23.817919 H          1 MOL1         0.0971
       8    C2      19.370695   19.079366   21.890247 C.3        1 MOL1        -0.1369
       9    H6      20.033478   18.726544   21.089815 H          1 MOL1         0.0997
      10    H7      18.370650   19.166931   21.445271 H          1 MOL1         0.0997
      11    C3      19.825149   20.478321   22.376448 C.3        1 MOL1        -0.1329
      12    H8      19.081180   20.868664   23.084711 H          1 MOL1         0.0997
      13    H9      19.821777   21.170463   21.523107 H          1 MOL1         0.0997
      14    C4      21.220784   20.511523   23.050483 C.3        1 MOL1        -0.1305
      15    H10     21.430765   21.541800   23.370355 H          1 MOL1         0.0997
      16    H11     21.213772   19.907281   23.967881 H          1 MOL1         0.0997
      17    C5      22.362423   20.035787   22.123475 C.3        1 MOL1        -0.2320
      18    H12     22.378002   20.611303   21.188854 H          1 MOL1         0.1008
      19    H13     23.335663   20.166312   22.614059 H          1 MOL1         0.1008
      20    H14     22.260287   18.972887   21.871588 H          1 MOL1         0.1008
@<TRIPOS>BOND
    1     1     2    1
    2     1     3    1
    3     1     4    1
    4     1     5    1
    5     5     6    1
    6     5     7    1
    7     5     8    1
    8     8     9    1
    9     8    10    1
   10     8    11    1
   11    11    12    1
   12    11    13    1
   13    11    14    1
   14    14    15    1
   15    14    16    1
   16    14    17    1
   17    17    18    1
   18    17    19    1
   19    17    20    1
@<TRIPOS>SUBSTRUCTURE
       1 MOL1            1 RESIDUE      1      MOL     
@<SCITEGIC>MOL_PROPERTY
VConf Rank
SciTegic.value.IntegerValue
743

@<SCITEGIC>MOL_PROPERTY
Conf_Id
SciTegic.value.IntegerValue
22

@<SCITEGIC>MOL_PROPERTY
Delta U+W
SciTegic.value.DoubleValue
0.731

@<SCITEGIC>MOL_PROPERTY
U+W
SciTegic.value.DoubleValue
-11.047

@<SCITEGIC>MOL_PROPERTY
Grad RMS
SciTegic.value.DoubleValue
0.000000

@<SCITEGIC>MOL_PROPERTY
U
SciTegic.value.DoubleValue
47.078

@<SCITEGIC>MOL_PROPERTY
W
SciTegic.value.DoubleValue
-58.125

@<SCITEGIC>MOL_PROPERTY
W(PB)
SciTegic.value.DoubleValue
-60.031

@<SCITEGIC>MOL_PROPERTY
W(SA)
SciTegic.value.DoubleValue
1.906

@<SCITEGIC>MOL_PROPERTY
Valence
SciTegic.value.DoubleValue
2.039

@<SCITEGIC>MOL_PROPERTY
Coulomb
SciTegic.value.DoubleValue
44.655

@<SCITEGIC>MOL_PROPERTY
VdW
SciTegic.value.DoubleValue
0.383

@<SCITEGIC>MOL_PROPERTY
VdW6
SciTegic.value.DoubleValue
-4.913

@<SCITEGIC>MOL_PROPERTY
VdW12
SciTegic.value.DoubleValue
5.296

@<SCITEGIC>MOL_PROPERTY
Bond
SciTegic.value.DoubleValue
0.159

@<SCITEGIC>MOL_PROPERTY
Angle
SciTegic.value.DoubleValue
0.856

@<SCITEGIC>MOL_PROPERTY
Pdih
SciTegic.value.DoubleValue
1.024

@<SCITEGIC>MOL_PROPERTY
Idih
SciTegic.value.DoubleValue
0.000

@<SCITEGIC>MOL_PROPERTY
Tether
SciTegic.value.DoubleValue
0.000

@<TRIPOS>MOLECULE
guest-s11_confgen4.mol2 : confsearch ligand conformer 744
          20          19           1
SMALL
USER_CHARGES
 
@<TRIPOS>ATOM
       1    N1      17.967097   19.191481   20.854243 N.4        1 MOL1        -0.5919
       2    H1      17.209279   19.001036   21.517401 H          1 MOL1         0.3682
       3    H2      17.776701   20.106709   20.434221 H          1 MOL1         0.3682
       4    H3      17.886719   18.497629   20.103509 H          1 MOL1         0.3682
       5    C1      19.327520   19.145924   21.520414 C.3        1 MOL1         0.0252
       6    H4      20.085734   19.329331   20.754340 H          1 MOL1         0.0971
       7    H5      19.469437   18.137572   21.915828 H          1 MOL1         0.0971
       8    C2      19.478406   20.172829   22.656799 C.3        1 MOL1        -0.1369
       9    H6      19.215617   21.166983   22.271414 H          1 MOL1         0.0997
      10    H7      18.755034   19.947437   23.451606 H          1 MOL1         0.0997
      11    C3      20.905826   20.240949   23.256587 C.3        1 MOL1        -0.1329
      12    H8      20.917910   21.062338   23.986468 H          1 MOL1         0.0997
      13    H9      21.630002   20.523653   22.480058 H          1 MOL1         0.0997
      14    C4      21.372639   18.950892   23.979794 C.3        1 MOL1        -0.1305
      15    H10     22.093621   19.234498   24.759444 H          1 MOL1         0.0997
      16    H11     20.529163   18.481965   24.505528 H          1 MOL1         0.0997
      17    C5      22.062070   17.925137   23.049553 C.3        1 MOL1        -0.2320
      18    H12     21.378178   17.522389   22.295258 H          1 MOL1         0.1008
      19    H13     22.915794   18.377616   22.528572 H          1 MOL1         0.1008
      20    H14     22.441860   17.076246   23.632758 H          1 MOL1         0.1008
@<TRIPOS>BOND
    1     1     2    1
    2     1     3    1
    3     1     4    1
    4     1     5    1
    5     5     6    1
    6     5     7    1
    7     5     8    1
    8     8     9    1
    9     8    10    1
   10     8    11    1
   11    11    12    1
   12    11    13    1
   13    11    14    1
   14    14    15    1
   15    14    16    1
   16    14    17    1
   17    17    18    1
   18    17    19    1
   19    17    20    1
@<TRIPOS>SUBSTRUCTURE
       1 MOL1            1 RESIDUE      1      MOL     
@<SCITEGIC>MOL_PROPERTY
VConf Rank
SciTegic.value.IntegerValue
744

@<SCITEGIC>MOL_PROPERTY
Conf_Id
SciTegic.value.IntegerValue
61

@<SCITEGIC>MOL_PROPERTY
Delta U+W
SciTegic.value.DoubleValue
2.669

@<SCITEGIC>MOL_PROPERTY
U+W
SciTegic.value.DoubleValue
-9.108

@<SCITEGIC>MOL_PROPERTY
Grad RMS
SciTegic.value.DoubleValue
0.000000

@<SCITEGIC>MOL_PROPERTY
U
SciTegic.value.DoubleValue
48.916

@<SCITEGIC>MOL_PROPERTY
W
SciTegic.value.DoubleValue
-58.025

@<SCITEGIC>MOL_PROPERTY
W(PB)
SciTegic.value.DoubleValue
-59.935

@<SCITEGIC>MOL_PROPERTY
W(SA)
SciTegic.value.DoubleValue
1.911

@<SCITEGIC>MOL_PROPERTY
Valence
SciTegic.value.DoubleValue
3.785

@<SCITEGIC>MOL_PROPERTY
Coulomb
SciTegic.value.DoubleValue
44.716

@<SCITEGIC>MOL_PROPERTY
VdW
SciTegic.value.DoubleValue
0.415

@<SCITEGIC>MOL_PROPERTY
VdW6
SciTegic.value.DoubleValue
-4.836

@<SCITEGIC>MOL_PROPERTY
VdW12
SciTegic.value.DoubleValue
5.251

@<SCITEGIC>MOL_PROPERTY
Bond
SciTegic.value.DoubleValue
0.175

@<SCITEGIC>MOL_PROPERTY
Angle
SciTegic.value.DoubleValue
1.195

@<SCITEGIC>MOL_PROPERTY
Pdih
SciTegic.value.DoubleValue
2.415

@<SCITEGIC>MOL_PROPERTY
Idih
SciTegic.value.DoubleValue
0.000

@<SCITEGIC>MOL_PROPERTY
Tether
SciTegic.value.DoubleValue
0.000

@<TRIPOS>MOLECULE
guest-s11_confgen4.mol2 : confsearch ligand conformer 745
          20          19           1
SMALL
USER_CHARGES
 
@<TRIPOS>ATOM
       1    N1      21.305991   20.649763   23.578350 N.4        1 MOL1        -0.5919
       2    H1      21.602512   21.631447   23.582029 H          1 MOL1         0.3682
       3    H2      21.769181   20.197171   24.372653 H          1 MOL1         0.3682
       4    H3      21.682776   20.225204   22.726993 H          1 MOL1         0.3682
       5    C1      19.797003   20.518498   23.657681 C.3        1 MOL1         0.0252
       6    H4      19.354835   21.066409   22.821249 H          1 MOL1         0.0971
       7    H5      19.483696   21.006656   24.584558 H          1 MOL1         0.0971
       8    C2      19.284130   19.063015   23.660268 C.3        1 MOL1        -0.1369
       9    H6      19.913807   18.443069   24.312180 H          1 MOL1         0.0997
      10    H7      18.285683   19.062017   24.117405 H          1 MOL1         0.0997
      11    C3      19.163006   18.419571   22.254894 C.3        1 MOL1        -0.1329
      12    H8      18.483826   19.020546   21.634403 H          1 MOL1         0.0997
      13    H9      18.683460   17.437483   22.368999 H          1 MOL1         0.0997
      14    C4      20.509109   18.234863   21.515839 C.3        1 MOL1        -0.1305
      15    H10     20.933645   19.213067   21.257503 H          1 MOL1         0.0997
      16    H11     21.229781   17.727894   22.172768 H          1 MOL1         0.0997
      17    C5      20.337623   17.415684   20.218705 C.3        1 MOL1        -0.2320
      18    H12     21.299332   17.302019   19.701746 H          1 MOL1         0.1008
      19    H13     19.950952   16.410890   20.433406 H          1 MOL1         0.1008
      20    H14     19.640950   17.909763   19.528920 H          1 MOL1         0.1008
@<TRIPOS>BOND
    1     1     2    1
    2     1     3    1
    3     1     4    1
    4     1     5    1
    5     5     6    1
    6     5     7    1
    7     5     8    1
    8     8     9    1
    9     8    10    1
   10     8    11    1
   11    11    12    1
   12    11    13    1
   13    11    14    1
   14    14    15    1
   15    14    16    1
   16    14    17    1
   17    17    18    1
   18    17    19    1
   19    17    20    1
@<TRIPOS>SUBSTRUCTURE
       1 MOL1            1 RESIDUE      1      MOL     
@<SCITEGIC>MOL_PROPERTY
VConf Rank
SciTegic.value.IntegerValue
745

@<SCITEGIC>MOL_PROPERTY
Conf_Id
SciTegic.value.IntegerValue
69

@<SCITEGIC>MOL_PROPERTY
Delta U+W
SciTegic.value.DoubleValue
2.811

@<SCITEGIC>MOL_PROPERTY
U+W
SciTegic.value.DoubleValue
-8.967

@<SCITEGIC>MOL_PROPERTY
Grad RMS
SciTegic.value.DoubleValue
0.000000

@<SCITEGIC>MOL_PROPERTY
U
SciTegic.value.DoubleValue
49.216

@<SCITEGIC>MOL_PROPERTY
W
SciTegic.value.DoubleValue
-58.183

@<SCITEGIC>MOL_PROPERTY
W(PB)
SciTegic.value.DoubleValue
-60.064

@<SCITEGIC>MOL_PROPERTY
W(SA)
SciTegic.value.DoubleValue
1.881

@<SCITEGIC>MOL_PROPERTY
Valence
SciTegic.value.DoubleValue
2.929

@<SCITEGIC>MOL_PROPERTY
Coulomb
SciTegic.value.DoubleValue
46.006

@<SCITEGIC>MOL_PROPERTY
VdW
SciTegic.value.DoubleValue
0.281

@<SCITEGIC>MOL_PROPERTY
VdW6
SciTegic.value.DoubleValue
-4.909

@<SCITEGIC>MOL_PROPERTY
VdW12
SciTegic.value.DoubleValue
5.190

@<SCITEGIC>MOL_PROPERTY
Bond
SciTegic.value.DoubleValue
0.156

@<SCITEGIC>MOL_PROPERTY
Angle
SciTegic.value.DoubleValue
0.974

@<SCITEGIC>MOL_PROPERTY
Pdih
SciTegic.value.DoubleValue
1.799

@<SCITEGIC>MOL_PROPERTY
Idih
SciTegic.value.DoubleValue
0.000

@<SCITEGIC>MOL_PROPERTY
Tether
SciTegic.value.DoubleValue
0.000

@<TRIPOS>MOLECULE
guest-s11_confgen4.mol2 : confsearch ligand conformer 746
          20          19           1
SMALL
USER_CHARGES
 
@<TRIPOS>ATOM
       1    N1      19.894157   17.971228   24.374216 N.4        1 MOL1        -0.5919
       2    H1      20.711293   17.874177   23.766024 H          1 MOL1         0.3682
       3    H2      20.166065   18.581826   25.151094 H          1 MOL1         0.3682
       4    H3      19.705878   17.046502   24.775559 H          1 MOL1         0.3682
       5    C1      18.691635   18.514302   23.626165 C.3        1 MOL1         0.0252
       6    H4      17.869654   18.572144   24.344885 H          1 MOL1         0.0971
       7    H5      18.411317   17.797723   22.849457 H          1 MOL1         0.0971
       8    C2      18.908032   19.907988   22.999834 C.3        1 MOL1        -0.1369
       9    H6      17.920505   20.366723   22.857618 H          1 MOL1         0.0997
      10    H7      19.442979   20.558506   23.704441 H          1 MOL1         0.0997
      11    C3      19.626357   19.892977   21.625951 C.3        1 MOL1        -0.1329
      12    H8      19.620793   20.916583   21.226353 H          1 MOL1         0.0997
      13    H9      19.047327   19.285377   20.916718 H          1 MOL1         0.0997
      14    C4      21.085746   19.382591   21.670714 C.3        1 MOL1        -0.1305
      15    H10     21.643674   19.913735   22.454643 H          1 MOL1         0.0997
      16    H11     21.103215   18.314900   21.922868 H          1 MOL1         0.0997
      17    C5      21.798398   19.579047   20.315520 C.3        1 MOL1        -0.2320
      18    H12     21.840017   20.641068   20.040562 H          1 MOL1         0.1008
      19    H13     22.828846   19.203348   20.361105 H          1 MOL1         0.1008
      20    H14     21.278185   19.038640   19.513892 H          1 MOL1         0.1008
@<TRIPOS>BOND
    1     1     2    1
    2     1     3    1
    3     1     4    1
    4     1     5    1
    5     5     6    1
    6     5     7    1
    7     5     8    1
    8     8     9    1
    9     8    10    1
   10     8    11    1
   11    11    12    1
   12    11    13    1
   13    11    14    1
   14    14    15    1
   15    14    16    1
   16    14    17    1
   17    17    18    1
   18    17    19    1
   19    17    20    1
@<TRIPOS>SUBSTRUCTURE
       1 MOL1            1 RESIDUE      1      MOL     
@<SCITEGIC>MOL_PROPERTY
VConf Rank
SciTegic.value.IntegerValue
746

@<SCITEGIC>MOL_PROPERTY
Conf_Id
SciTegic.value.IntegerValue
26

@<SCITEGIC>MOL_PROPERTY
Delta U+W
SciTegic.value.DoubleValue
2.809

@<SCITEGIC>MOL_PROPERTY
U+W
SciTegic.value.DoubleValue
-8.969

@<SCITEGIC>MOL_PROPERTY
Grad RMS
SciTegic.value.DoubleValue
0.000000

@<SCITEGIC>MOL_PROPERTY
U
SciTegic.value.DoubleValue
49.216

@<SCITEGIC>MOL_PROPERTY
W
SciTegic.value.DoubleValue
-58.185

@<SCITEGIC>MOL_PROPERTY
W(PB)
SciTegic.value.DoubleValue
-60.088

@<SCITEGIC>MOL_PROPERTY
W(SA)
SciTegic.value.DoubleValue
1.903

@<SCITEGIC>MOL_PROPERTY
Valence
SciTegic.value.DoubleValue
2.929

@<SCITEGIC>MOL_PROPERTY
Coulomb
SciTegic.value.DoubleValue
46.006

@<SCITEGIC>MOL_PROPERTY
VdW
SciTegic.value.DoubleValue
0.281

@<SCITEGIC>MOL_PROPERTY
VdW6
SciTegic.value.DoubleValue
-4.909

@<SCITEGIC>MOL_PROPERTY
VdW12
SciTegic.value.DoubleValue
5.190

@<SCITEGIC>MOL_PROPERTY
Bond
SciTegic.value.DoubleValue
0.156

@<SCITEGIC>MOL_PROPERTY
Angle
SciTegic.value.DoubleValue
0.974

@<SCITEGIC>MOL_PROPERTY
Pdih
SciTegic.value.DoubleValue
1.799

@<SCITEGIC>MOL_PROPERTY
Idih
SciTegic.value.DoubleValue
0.000

@<SCITEGIC>MOL_PROPERTY
Tether
SciTegic.value.DoubleValue
0.000

@<TRIPOS>MOLECULE
guest-s11_confgen4.mol2 : confsearch ligand conformer 747
          20          19           1
SMALL
USER_CHARGES
 
@<TRIPOS>ATOM
       1    N1      19.373448   19.167138   20.164629 N.4        1 MOL1        -0.5919
       2    H1      19.972384   18.345387   20.286864 H          1 MOL1         0.3682
       3    H2      18.424128   18.825835   19.984790 H          1 MOL1         0.3682
       4    H3      19.686064   19.642916   19.311860 H          1 MOL1         0.3682
       5    C1      19.424033   20.082877   21.372048 C.3        1 MOL1         0.0252
       6    H4      18.790216   20.948323   21.160419 H          1 MOL1         0.0971
       7    H5      20.452044   20.435953   21.488078 H          1 MOL1         0.0971
       8    C2      18.954297   19.411894   22.678732 C.3        1 MOL1        -0.1369
       9    H6      18.949993   20.161998   23.479892 H          1 MOL1         0.0997
      10    H7      17.910428   19.091617   22.562984 H          1 MOL1         0.0997
      11    C3      19.816667   18.195916   23.108512 C.3        1 MOL1        -0.1329
      12    H8      19.687246   17.383310   22.381100 H          1 MOL1         0.0997
      13    H9      19.429420   17.806663   24.060206 H          1 MOL1         0.0997
      14    C4      21.329883   18.494329   23.263938 C.3        1 MOL1        -0.1305
      15    H10     21.843278   17.564840   23.547358 H          1 MOL1         0.0997
      16    H11     21.759736   18.793676   22.298477 H          1 MOL1         0.0997
      17    C5      21.635667   19.575219   24.325549 C.3        1 MOL1        -0.2320
      18    H12     21.201854   19.307618   25.297741 H          1 MOL1         0.1008
      19    H13     22.719363   19.685692   24.460764 H          1 MOL1         0.1008
      20    H14     21.238722   20.554193   24.029499 H          1 MOL1         0.1008
@<TRIPOS>BOND
    1     1     2    1
    2     1     3    1
    3     1     4    1
    4     1     5    1
    5     5     6    1
    6     5     7    1
    7     5     8    1
    8     8     9    1
    9     8    10    1
   10     8    11    1
   11    11    12    1
   12    11    13    1
   13    11    14    1
   14    14    15    1
   15    14    16    1
   16    14    17    1
   17    17    18    1
   18    17    19    1
   19    17    20    1
@<TRIPOS>SUBSTRUCTURE
       1 MOL1            1 RESIDUE      1      MOL     
@<SCITEGIC>MOL_PROPERTY
VConf Rank
SciTegic.value.IntegerValue
747

@<SCITEGIC>MOL_PROPERTY
Conf_Id
SciTegic.value.IntegerValue
2

@<SCITEGIC>MOL_PROPERTY
Delta U+W
SciTegic.value.DoubleValue
0.994

@<SCITEGIC>MOL_PROPERTY
U+W
SciTegic.value.DoubleValue
-10.784

@<SCITEGIC>MOL_PROPERTY
Grad RMS
SciTegic.value.DoubleValue
0.000000

@<SCITEGIC>MOL_PROPERTY
U
SciTegic.value.DoubleValue
47.562

@<SCITEGIC>MOL_PROPERTY
W
SciTegic.value.DoubleValue
-58.346

@<SCITEGIC>MOL_PROPERTY
W(PB)
SciTegic.value.DoubleValue
-60.221

@<SCITEGIC>MOL_PROPERTY
W(SA)
SciTegic.value.DoubleValue
1.875

@<SCITEGIC>MOL_PROPERTY
Valence
SciTegic.value.DoubleValue
2.149

@<SCITEGIC>MOL_PROPERTY
Coulomb
SciTegic.value.DoubleValue
45.034

@<SCITEGIC>MOL_PROPERTY
VdW
SciTegic.value.DoubleValue
0.378

@<SCITEGIC>MOL_PROPERTY
VdW6
SciTegic.value.DoubleValue
-5.599

@<SCITEGIC>MOL_PROPERTY
VdW12
SciTegic.value.DoubleValue
5.977

@<SCITEGIC>MOL_PROPERTY
Bond
SciTegic.value.DoubleValue
0.185

@<SCITEGIC>MOL_PROPERTY
Angle
SciTegic.value.DoubleValue
0.935

@<SCITEGIC>MOL_PROPERTY
Pdih
SciTegic.value.DoubleValue
1.028

@<SCITEGIC>MOL_PROPERTY
Idih
SciTegic.value.DoubleValue
0.000

@<SCITEGIC>MOL_PROPERTY
Tether
SciTegic.value.DoubleValue
0.000

@<TRIPOS>MOLECULE
guest-s11_confgen4.mol2 : confsearch ligand conformer 748
          20          19           1
SMALL
USER_CHARGES
 
@<TRIPOS>ATOM
       1    N1      20.455154   20.410063   24.466365 N.4        1 MOL1        -0.5919
       2    H1      20.459186   19.912095   25.361938 H          1 MOL1         0.3682
       3    H2      21.383384   20.291620   24.050071 H          1 MOL1         0.3682
       4    H3      20.346276   21.407020   24.679743 H          1 MOL1         0.3682
       5    C1      19.359495   19.907335   23.546696 C.3        1 MOL1         0.0252
       6    H4      19.388881   20.498847   22.627902 H          1 MOL1         0.0971
       7    H5      18.400739   20.092589   24.038607 H          1 MOL1         0.0971
       8    C2      19.477539   18.408398   23.203852 C.3        1 MOL1        -0.1369
       9    H6      19.412787   17.821897   24.129844 H          1 MOL1         0.0997
      10    H7      18.608564   18.113718   22.601706 H          1 MOL1         0.0997
      11    C3      20.782500   18.034231   22.452807 C.3        1 MOL1        -0.1329
      12    H8      20.762454   16.959996   22.222988 H          1 MOL1         0.0997
      13    H9      21.641181   18.178327   23.122218 H          1 MOL1         0.0997
      14    C4      21.028702   18.825810   21.142913 C.3        1 MOL1        -0.1305
      15    H10     21.148643   19.895507   21.361677 H          1 MOL1         0.0997
      16    H11     21.983794   18.497808   20.709249 H          1 MOL1         0.0997
      17    C5      19.912538   18.633237   20.091280 C.3        1 MOL1        -0.2320
      18    H12     18.958465   19.051498   20.435380 H          1 MOL1         0.1008
      19    H13     20.175959   19.139788   19.153783 H          1 MOL1         0.1008
      20    H14     19.760970   17.569491   19.866709 H          1 MOL1         0.1008
@<TRIPOS>BOND
    1     1     2    1
    2     1     3    1
    3     1     4    1
    4     1     5    1
    5     5     6    1
    6     5     7    1
    7     5     8    1
    8     8     9    1
    9     8    10    1
   10     8    11    1
   11    11    12    1
   12    11    13    1
   13    11    14    1
   14    14    15    1
   15    14    16    1
   16    14    17    1
   17    17    18    1
   18    17    19    1
   19    17    20    1
@<TRIPOS>SUBSTRUCTURE
       1 MOL1            1 RESIDUE      1      MOL     
@<SCITEGIC>MOL_PROPERTY
VConf Rank
SciTegic.value.IntegerValue
748

@<SCITEGIC>MOL_PROPERTY
Conf_Id
SciTegic.value.IntegerValue
1

@<SCITEGIC>MOL_PROPERTY
Delta U+W
SciTegic.value.DoubleValue
1.032

@<SCITEGIC>MOL_PROPERTY
U+W
SciTegic.value.DoubleValue
-10.746

@<SCITEGIC>MOL_PROPERTY
Grad RMS
SciTegic.value.DoubleValue
0.000000

@<SCITEGIC>MOL_PROPERTY
U
SciTegic.value.DoubleValue
47.562

@<SCITEGIC>MOL_PROPERTY
W
SciTegic.value.DoubleValue
-58.308

@<SCITEGIC>MOL_PROPERTY
W(PB)
SciTegic.value.DoubleValue
-60.184

@<SCITEGIC>MOL_PROPERTY
W(SA)
SciTegic.value.DoubleValue
1.877

@<SCITEGIC>MOL_PROPERTY
Valence
SciTegic.value.DoubleValue
2.149

@<SCITEGIC>MOL_PROPERTY
Coulomb
SciTegic.value.DoubleValue
45.035

@<SCITEGIC>MOL_PROPERTY
VdW
SciTegic.value.DoubleValue
0.378

@<SCITEGIC>MOL_PROPERTY
VdW6
SciTegic.value.DoubleValue
-5.599

@<SCITEGIC>MOL_PROPERTY
VdW12
SciTegic.value.DoubleValue
5.978

@<SCITEGIC>MOL_PROPERTY
Bond
SciTegic.value.DoubleValue
0.185

@<SCITEGIC>MOL_PROPERTY
Angle
SciTegic.value.DoubleValue
0.935

@<SCITEGIC>MOL_PROPERTY
Pdih
SciTegic.value.DoubleValue
1.028

@<SCITEGIC>MOL_PROPERTY
Idih
SciTegic.value.DoubleValue
0.000

@<SCITEGIC>MOL_PROPERTY
Tether
SciTegic.value.DoubleValue
0.000

@<TRIPOS>MOLECULE
guest-s11_confgen4.mol2 : confsearch ligand conformer 749
          20          19           1
SMALL
USER_CHARGES
 
@<TRIPOS>ATOM
       1    N1      20.219070   21.439235   22.729882 N.4        1 MOL1        -0.5919
       2    H1      20.987557   21.983778   22.326160 H          1 MOL1         0.3682
       3    H2      19.585742   21.194729   21.963203 H          1 MOL1         0.3682
       4    H3      19.703996   22.068426   23.354512 H          1 MOL1         0.3682
       5    C1      20.721814   20.208699   23.459804 C.3        1 MOL1         0.0252
       6    H4      19.859151   19.696168   23.888343 H          1 MOL1         0.0971
       7    H5      21.353030   20.551056   24.284354 H          1 MOL1         0.0971
       8    C2      21.532710   19.243251   22.569257 C.3        1 MOL1        -0.1369
       9    H6      22.382778   19.798618   22.151200 H          1 MOL1         0.0997
      10    H7      21.968730   18.452232   23.193593 H          1 MOL1         0.0997
      11    C3      20.729357   18.603849   21.404735 C.3        1 MOL1        -0.1329
      12    H8      21.445602   18.301452   20.628222 H          1 MOL1         0.0997
      13    H9      20.079097   19.348541   20.927955 H          1 MOL1         0.0997
      14    C4      19.904441   17.348139   21.787802 C.3        1 MOL1        -0.1305
      15    H10     19.459829   16.935511   20.871283 H          1 MOL1         0.0997
      16    H11     20.574704   16.568588   22.176169 H          1 MOL1         0.0997
      17    C5      18.773531   17.607810   22.807383 C.3        1 MOL1        -0.2320
      18    H12     18.150836   18.459421   22.504446 H          1 MOL1         0.1008
      19    H13     18.121971   16.728013   22.887103 H          1 MOL1         0.1008
      20    H14     19.175344   17.803244   23.808585 H          1 MOL1         0.1008
@<TRIPOS>BOND
    1     1     2    1
    2     1     3    1
    3     1     4    1
    4     1     5    1
    5     5     6    1
    6     5     7    1
    7     5     8    1
    8     8     9    1
    9     8    10    1
   10     8    11    1
   11    11    12    1
   12    11    13    1
   13    11    14    1
   14    14    15    1
   15    14    16    1
   16    14    17    1
   17    17    18    1
   18    17    19    1
   19    17    20    1
@<TRIPOS>SUBSTRUCTURE
       1 MOL1            1 RESIDUE      1      MOL     
@<SCITEGIC>MOL_PROPERTY
VConf Rank
SciTegic.value.IntegerValue
749

@<SCITEGIC>MOL_PROPERTY
Conf_Id
SciTegic.value.IntegerValue
80

@<SCITEGIC>MOL_PROPERTY
Delta U+W
SciTegic.value.DoubleValue
2.920

@<SCITEGIC>MOL_PROPERTY
U+W
SciTegic.value.DoubleValue
-8.857

@<SCITEGIC>MOL_PROPERTY
Grad RMS
SciTegic.value.DoubleValue
0.000000

@<SCITEGIC>MOL_PROPERTY
U
SciTegic.value.DoubleValue
49.434

@<SCITEGIC>MOL_PROPERTY
W
SciTegic.value.DoubleValue
-58.292

@<SCITEGIC>MOL_PROPERTY
W(PB)
SciTegic.value.DoubleValue
-60.170

@<SCITEGIC>MOL_PROPERTY
W(SA)
SciTegic.value.DoubleValue
1.879

@<SCITEGIC>MOL_PROPERTY
Valence
SciTegic.value.DoubleValue
3.798

@<SCITEGIC>MOL_PROPERTY
Coulomb
SciTegic.value.DoubleValue
45.253

@<SCITEGIC>MOL_PROPERTY
VdW
SciTegic.value.DoubleValue
0.384

@<SCITEGIC>MOL_PROPERTY
VdW6
SciTegic.value.DoubleValue
-5.595

@<SCITEGIC>MOL_PROPERTY
VdW12
SciTegic.value.DoubleValue
5.979

@<SCITEGIC>MOL_PROPERTY
Bond
SciTegic.value.DoubleValue
0.198

@<SCITEGIC>MOL_PROPERTY
Angle
SciTegic.value.DoubleValue
1.368

@<SCITEGIC>MOL_PROPERTY
Pdih
SciTegic.value.DoubleValue
2.231

@<SCITEGIC>MOL_PROPERTY
Idih
SciTegic.value.DoubleValue
0.000

@<SCITEGIC>MOL_PROPERTY
Tether
SciTegic.value.DoubleValue
0.000

@<TRIPOS>MOLECULE
guest-s11_confgen4.mol2 : confsearch ligand conformer 750
          20          19           1
SMALL
USER_CHARGES
 
@<TRIPOS>ATOM
       1    N1      19.588807   16.946704   22.457916 N.4        1 MOL1        -0.5919
       2    H1      19.626541   16.414190   23.332613 H          1 MOL1         0.3682
       3    H2      19.067839   16.376089   21.783870 H          1 MOL1         0.3682
       4    H3      20.548113   17.021923   22.107542 H          1 MOL1         0.3682
       5    C1      18.951782   18.308951   22.653460 C.3        1 MOL1         0.0252
       6    H4      17.922887   18.145660   22.985475 H          1 MOL1         0.0971
       7    H5      18.916006   18.805790   21.682693 H          1 MOL1         0.0971
       8    C2      19.681176   19.196231   23.684695 C.3        1 MOL1        -0.1369
       9    H6      19.090847   20.104277   23.865204 H          1 MOL1         0.0997
      10    H7      19.703890   18.657760   24.641436 H          1 MOL1         0.0997
      11    C3      21.131995   19.587574   23.294438 C.3        1 MOL1        -0.1329
      12    H8      21.661750   18.729106   22.861874 H          1 MOL1         0.0997
      13    H9      21.674894   19.830633   24.218346 H          1 MOL1         0.0997
      14    C4      21.250686   20.812949   22.351882 C.3        1 MOL1        -0.1305
      15    H10     20.802658   21.694388   22.831590 H          1 MOL1         0.0997
      16    H11     22.316894   21.047271   22.224442 H          1 MOL1         0.0997
      17    C5      20.622264   20.613348   20.955038 C.3        1 MOL1        -0.2320
      18    H12     19.527195   20.602164   21.007485 H          1 MOL1         0.1008
      19    H13     20.905086   21.437836   20.287835 H          1 MOL1         0.1008
      20    H14     20.963221   19.677402   20.494046 H          1 MOL1         0.1008
@<TRIPOS>BOND
    1     1     2    1
    2     1     3    1
    3     1     4    1
    4     1     5    1
    5     5     6    1
    6     5     7    1
    7     5     8    1
    8     8     9    1
    9     8    10    1
   10     8    11    1
   11    11    12    1
   12    11    13    1
   13    11    14    1
   14    14    15    1
   15    14    16    1
   16    14    17    1
   17    17    18    1
   18    17    19    1
   19    17    20    1
@<TRIPOS>SUBSTRUCTURE
       1 MOL1            1 RESIDUE      1      MOL     
@<SCITEGIC>MOL_PROPERTY
VConf Rank
SciTegic.value.IntegerValue
750

@<SCITEGIC>MOL_PROPERTY
Conf_Id
SciTegic.value.IntegerValue
65

@<SCITEGIC>MOL_PROPERTY
Delta U+W
SciTegic.value.DoubleValue
2.949

@<SCITEGIC>MOL_PROPERTY
U+W
SciTegic.value.DoubleValue
-8.829

@<SCITEGIC>MOL_PROPERTY
Grad RMS
SciTegic.value.DoubleValue
0.000000

@<SCITEGIC>MOL_PROPERTY
U
SciTegic.value.DoubleValue
49.435

@<SCITEGIC>MOL_PROPERTY
W
SciTegic.value.DoubleValue
-58.263

@<SCITEGIC>MOL_PROPERTY
W(PB)
SciTegic.value.DoubleValue
-60.125

@<SCITEGIC>MOL_PROPERTY
W(SA)
SciTegic.value.DoubleValue
1.862

@<SCITEGIC>MOL_PROPERTY
Valence
SciTegic.value.DoubleValue
3.797

@<SCITEGIC>MOL_PROPERTY
Coulomb
SciTegic.value.DoubleValue
45.253

@<SCITEGIC>MOL_PROPERTY
VdW
SciTegic.value.DoubleValue
0.384

@<SCITEGIC>MOL_PROPERTY
VdW6
SciTegic.value.DoubleValue
-5.596

@<SCITEGIC>MOL_PROPERTY
VdW12
SciTegic.value.DoubleValue
5.980

@<SCITEGIC>MOL_PROPERTY
Bond
SciTegic.value.DoubleValue
0.198

@<SCITEGIC>MOL_PROPERTY
Angle
SciTegic.value.DoubleValue
1.369

@<SCITEGIC>MOL_PROPERTY
Pdih
SciTegic.value.DoubleValue
2.230

@<SCITEGIC>MOL_PROPERTY
Idih
SciTegic.value.DoubleValue
0.000

@<SCITEGIC>MOL_PROPERTY
Tether
SciTegic.value.DoubleValue
0.000

@<TRIPOS>MOLECULE
guest-s11_confgen4.mol2 : confsearch ligand conformer 751
          20          19           1
SMALL
USER_CHARGES
 
@<TRIPOS>ATOM
       1    N1      20.427239   17.455815   21.653740 N.4        1 MOL1        -0.5919
       2    H1      20.712143   17.071066   20.746833 H          1 MOL1         0.3682
       3    H2      21.195935   18.042564   21.992202 H          1 MOL1         0.3682
       4    H3      20.340541   16.664444   22.299202 H          1 MOL1         0.3682
       5    C1      19.134812   18.242399   21.551398 C.3        1 MOL1         0.0252
       6    H4      18.368573   17.551970   21.188484 H          1 MOL1         0.0971
       7    H5      19.262135   19.030640   20.804628 H          1 MOL1         0.0971
       8    C2      18.667478   18.856305   22.886736 C.3        1 MOL1        -0.1369
       9    H6      17.584497   19.023532   22.816042 H          1 MOL1         0.0997
      10    H7      18.804600   18.129406   23.698294 H          1 MOL1         0.0997
      11    C3      19.331637   20.208517   23.261268 C.3        1 MOL1        -0.1329
      12    H8      18.869584   20.553035   24.196864 H          1 MOL1         0.0997
      13    H9      19.078138   20.970632   22.511345 H          1 MOL1         0.0997
      14    C4      20.866310   20.160957   23.473491 C.3        1 MOL1        -0.1305
      15    H10     21.129482   20.857527   24.282063 H          1 MOL1         0.0997
      16    H11     21.174817   19.168122   23.827559 H          1 MOL1         0.0997
      17    C5      21.666820   20.573484   22.215388 C.3        1 MOL1        -0.2320
      18    H12     21.409633   19.970355   21.338071 H          1 MOL1         0.1008
      19    H13     21.471587   21.623458   21.960907 H          1 MOL1         0.1008
      20    H14     22.745466   20.471992   22.392593 H          1 MOL1         0.1008
@<TRIPOS>BOND
    1     1     2    1
    2     1     3    1
    3     1     4    1
    4     1     5    1
    5     5     6    1
    6     5     7    1
    7     5     8    1
    8     8     9    1
    9     8    10    1
   10     8    11    1
   11    11    12    1
   12    11    13    1
   13    11    14    1
   14    14    15    1
   15    14    16    1
   16    14    17    1
   17    17    18    1
   18    17    19    1
   19    17    20    1
@<TRIPOS>SUBSTRUCTURE
       1 MOL1            1 RESIDUE      1      MOL     
@<SCITEGIC>MOL_PROPERTY
VConf Rank
SciTegic.value.IntegerValue
751

@<SCITEGIC>MOL_PROPERTY
Conf_Id
SciTegic.value.IntegerValue
77

@<SCITEGIC>MOL_PROPERTY
Delta U+W
SciTegic.value.DoubleValue
5.366

@<SCITEGIC>MOL_PROPERTY
U+W
SciTegic.value.DoubleValue
-6.412

@<SCITEGIC>MOL_PROPERTY
Grad RMS
SciTegic.value.DoubleValue
0.000000

@<SCITEGIC>MOL_PROPERTY
U
SciTegic.value.DoubleValue
51.542

@<SCITEGIC>MOL_PROPERTY
W
SciTegic.value.DoubleValue
-57.954

@<SCITEGIC>MOL_PROPERTY
W(PB)
SciTegic.value.DoubleValue
-59.811

@<SCITEGIC>MOL_PROPERTY
W(SA)
SciTegic.value.DoubleValue
1.857

@<SCITEGIC>MOL_PROPERTY
Valence
SciTegic.value.DoubleValue
5.347

@<SCITEGIC>MOL_PROPERTY
Coulomb
SciTegic.value.DoubleValue
45.870

@<SCITEGIC>MOL_PROPERTY
VdW
SciTegic.value.DoubleValue
0.325

@<SCITEGIC>MOL_PROPERTY
VdW6
SciTegic.value.DoubleValue
-6.161

@<SCITEGIC>MOL_PROPERTY
VdW12
SciTegic.value.DoubleValue
6.486

@<SCITEGIC>MOL_PROPERTY
Bond
SciTegic.value.DoubleValue
0.201

@<SCITEGIC>MOL_PROPERTY
Angle
SciTegic.value.DoubleValue
1.484

@<SCITEGIC>MOL_PROPERTY
Pdih
SciTegic.value.DoubleValue
3.662

@<SCITEGIC>MOL_PROPERTY
Idih
SciTegic.value.DoubleValue
0.000

@<SCITEGIC>MOL_PROPERTY
Tether
SciTegic.value.DoubleValue
0.000

@<TRIPOS>MOLECULE
guest-s11_confgen4.mol2 : confsearch ligand conformer 752
          20          19           1
SMALL
USER_CHARGES
 
@<TRIPOS>ATOM
       1    N1      21.809485   20.054917   21.934025 N.4        1 MOL1        -0.5919
       2    H1      22.055282   20.004604   20.940315 H          1 MOL1         0.3682
       3    H2      20.884697   20.491314   21.997672 H          1 MOL1         0.3682
       4    H3      22.480198   20.693071   22.375145 H          1 MOL1         0.3682
       5    C1      21.821088   18.686007   22.586337 C.3        1 MOL1         0.0252
       6    H4      21.617863   18.804480   23.653982 H          1 MOL1         0.0971
       7    H5      22.833525   18.288139   22.475922 H          1 MOL1         0.0971
       8    C2      20.818598   17.689485   21.969597 C.3        1 MOL1        -0.1369
       9    H6      20.834188   17.775864   20.875018 H          1 MOL1         0.0997
      10    H7      21.175512   16.675505   22.193801 H          1 MOL1         0.0997
      11    C3      19.362505   17.805601   22.495121 C.3        1 MOL1        -0.1329
      12    H8      19.334021   17.584689   23.571156 H          1 MOL1         0.0997
      13    H9      18.776476   17.008547   22.016789 H          1 MOL1         0.0997
      14    C4      18.657062   19.156122   22.210583 C.3        1 MOL1        -0.1305
      15    H10     19.051690   19.609793   21.291500 H          1 MOL1         0.0997
      16    H11     17.594170   18.960276   22.010172 H          1 MOL1         0.0997
      17    C5      18.739495   20.146469   23.396431 C.3        1 MOL1        -0.2320
      18    H12     18.277082   21.106326   23.131796 H          1 MOL1         0.1008
      19    H13     18.202027   19.750441   24.267988 H          1 MOL1         0.1008
      20    H14     19.770912   20.342220   23.708607 H          1 MOL1         0.1008
@<TRIPOS>BOND
    1     1     2    1
    2     1     3    1
    3     1     4    1
    4     1     5    1
    5     5     6    1
    6     5     7    1
    7     5     8    1
    8     8     9    1
    9     8    10    1
   10     8    11    1
   11    11    12    1
   12    11    13    1
   13    11    14    1
   14    14    15    1
   15    14    16    1
   16    14    17    1
   17    17    18    1
   18    17    19    1
   19    17    20    1
@<TRIPOS>SUBSTRUCTURE
       1 MOL1            1 RESIDUE      1      MOL     
@<SCITEGIC>MOL_PROPERTY
VConf Rank
SciTegic.value.IntegerValue
752

@<SCITEGIC>MOL_PROPERTY
Conf_Id
SciTegic.value.IntegerValue
67

@<SCITEGIC>MOL_PROPERTY
Delta U+W
SciTegic.value.DoubleValue
5.353

@<SCITEGIC>MOL_PROPERTY
U+W
SciTegic.value.DoubleValue
-6.425

@<SCITEGIC>MOL_PROPERTY
Grad RMS
SciTegic.value.DoubleValue
0.000000

@<SCITEGIC>MOL_PROPERTY
U
SciTegic.value.DoubleValue
51.541

@<SCITEGIC>MOL_PROPERTY
W
SciTegic.value.DoubleValue
-57.966

@<SCITEGIC>MOL_PROPERTY
W(PB)
SciTegic.value.DoubleValue
-59.821

@<SCITEGIC>MOL_PROPERTY
W(SA)
SciTegic.value.DoubleValue
1.855

@<SCITEGIC>MOL_PROPERTY
Valence
SciTegic.value.DoubleValue
5.347

@<SCITEGIC>MOL_PROPERTY
Coulomb
SciTegic.value.DoubleValue
45.870

@<SCITEGIC>MOL_PROPERTY
VdW
SciTegic.value.DoubleValue
0.325

@<SCITEGIC>MOL_PROPERTY
VdW6
SciTegic.value.DoubleValue
-6.161

@<SCITEGIC>MOL_PROPERTY
VdW12
SciTegic.value.DoubleValue
6.486

@<SCITEGIC>MOL_PROPERTY
Bond
SciTegic.value.DoubleValue
0.201

@<SCITEGIC>MOL_PROPERTY
Angle
SciTegic.value.DoubleValue
1.485

@<SCITEGIC>MOL_PROPERTY
Pdih
SciTegic.value.DoubleValue
3.662

@<SCITEGIC>MOL_PROPERTY
Idih
SciTegic.value.DoubleValue
0.000

@<SCITEGIC>MOL_PROPERTY
Tether
SciTegic.value.DoubleValue
0.000

@<TRIPOS>MOLECULE
guest-s11_confgen4.mol2 : confsearch ligand conformer 753
          20          19           1
SMALL
USER_CHARGES
 
@<TRIPOS>ATOM
       1    N1      22.616215   17.497375   23.730311 N.4        1 MOL1        -0.5919
       2    H1      22.312967   17.517427   24.709099 H          1 MOL1         0.3682
       3    H2      23.078060   16.594083   23.580774 H          1 MOL1         0.3682
       4    H3      23.335129   18.219873   23.622851 H          1 MOL1         0.3682
       5    C1      21.458694   17.703098   22.774115 C.3        1 MOL1         0.0252
       6    H4      20.749138   16.884459   22.922026 H          1 MOL1         0.0971
       7    H5      21.847979   17.639787   21.754328 H          1 MOL1         0.0971
       8    C2      20.742623   19.051149   22.972270 C.3        1 MOL1        -0.1369
       9    H6      20.367294   19.117061   24.002247 H          1 MOL1         0.0997
      10    H7      21.462343   19.869804   22.838574 H          1 MOL1         0.0997
      11    C3      19.571047   19.220979   21.979647 C.3        1 MOL1        -0.1329
      12    H8      18.855598   18.397419   22.112584 H          1 MOL1         0.0997
      13    H9      19.949338   19.149347   20.950300 H          1 MOL1         0.0997
      14    C4      18.844393   20.571343   22.169460 C.3        1 MOL1        -0.1305
      15    H10     18.462525   20.646274   23.197375 H          1 MOL1         0.0997
      16    H11     19.556072   21.398098   22.035163 H          1 MOL1         0.0997
      17    C5      17.674685   20.736562   21.175747 C.3        1 MOL1        -0.2320
      18    H12     16.928052   19.942832   21.308965 H          1 MOL1         0.1008
      19    H13     17.171499   21.700549   21.326000 H          1 MOL1         0.1008
      20    H14     18.030142   20.700668   20.137683 H          1 MOL1         0.1008
@<TRIPOS>BOND
    1     1     2    1
    2     1     3    1
    3     1     4    1
    4     1     5    1
    5     5     6    1
    6     5     7    1
    7     5     8    1
    8     8     9    1
    9     8    10    1
   10     8    11    1
   11    11    12    1
   12    11    13    1
   13    11    14    1
   14    14    15    1
   15    14    16    1
   16    14    17    1
   17    17    18    1
   18    17    19    1
   19    17    20    1
@<TRIPOS>SUBSTRUCTURE
       1 MOL1            1 RESIDUE      1      MOL     
@<SCITEGIC>MOL_PROPERTY
VConf Rank
SciTegic.value.IntegerValue
753

@<SCITEGIC>MOL_PROPERTY
Conf_Id
SciTegic.value.IntegerValue
72

@<SCITEGIC>MOL_PROPERTY
Delta U+W
SciTegic.value.DoubleValue
0.000

@<SCITEGIC>MOL_PROPERTY
U+W
SciTegic.value.DoubleValue
-11.778

@<SCITEGIC>MOL_PROPERTY
Grad RMS
SciTegic.value.DoubleValue
0.000000

@<SCITEGIC>MOL_PROPERTY
U
SciTegic.value.DoubleValue
45.772

@<SCITEGIC>MOL_PROPERTY
W
SciTegic.value.DoubleValue
-57.550

@<SCITEGIC>MOL_PROPERTY
W(PB)
SciTegic.value.DoubleValue
-59.511

@<SCITEGIC>MOL_PROPERTY
W(SA)
SciTegic.value.DoubleValue
1.961

@<SCITEGIC>MOL_PROPERTY
Valence
SciTegic.value.DoubleValue
1.299

@<SCITEGIC>MOL_PROPERTY
Coulomb
SciTegic.value.DoubleValue
44.177

@<SCITEGIC>MOL_PROPERTY
VdW
SciTegic.value.DoubleValue
0.297

@<SCITEGIC>MOL_PROPERTY
VdW6
SciTegic.value.DoubleValue
-3.490

@<SCITEGIC>MOL_PROPERTY
VdW12
SciTegic.value.DoubleValue
3.786

@<SCITEGIC>MOL_PROPERTY
Bond
SciTegic.value.DoubleValue
0.096

@<SCITEGIC>MOL_PROPERTY
Angle
SciTegic.value.DoubleValue
0.381

@<SCITEGIC>MOL_PROPERTY
Pdih
SciTegic.value.DoubleValue
0.822

@<SCITEGIC>MOL_PROPERTY
Idih
SciTegic.value.DoubleValue
0.000

@<SCITEGIC>MOL_PROPERTY
Tether
SciTegic.value.DoubleValue
0.000

@<TRIPOS>MOLECULE
guest-s11_confgen4.mol2 : confsearch ligand conformer 754
          20          19           1
SMALL
USER_CHARGES
 
@<TRIPOS>ATOM
       1    N1      20.002287   17.730229   25.112107 N.4        1 MOL1        -0.5919
       2    H1      20.959525   18.020502   25.335207 H          1 MOL1         0.3682
       3    H2      19.370914   18.374519   25.598546 H          1 MOL1         0.3682
       4    H3      19.866154   16.805572   25.534078 H          1 MOL1         0.3682
       5    C1      19.749940   17.709858   23.617958 C.3        1 MOL1         0.0252
       6    H4      18.725918   17.363710   23.453476 H          1 MOL1         0.0971
       7    H5      20.433759   16.983782   23.169950 H          1 MOL1         0.0971
       8    C2      19.945250   19.083939   22.952357 C.3        1 MOL1        -0.1369
       9    H6      19.268065   19.813460   23.416070 H          1 MOL1         0.0997
      10    H7      20.969980   19.429243   23.138794 H          1 MOL1         0.0997
      11    C3      19.675417   19.016837   21.430576 C.3        1 MOL1        -0.1329
      12    H8      18.673603   18.597254   21.263068 H          1 MOL1         0.0997
      13    H9      20.383782   18.321308   20.959357 H          1 MOL1         0.0997
      14    C4      19.756509   20.393627   20.727338 C.3        1 MOL1        -0.1305
      15    H10     19.450846   20.272469   19.678610 H          1 MOL1         0.0997
      16    H11     19.032457   21.085608   21.179873 H          1 MOL1         0.0997
      17    C5      21.168732   21.021109   20.765059 C.3        1 MOL1        -0.2320
      18    H12     21.916573   20.336939   20.343562 H          1 MOL1         0.1008
      19    H13     21.193117   21.947685   20.176999 H          1 MOL1         0.1008
      20    H14     21.471202   21.273245   21.788954 H          1 MOL1         0.1008
@<TRIPOS>BOND
    1     1     2    1
    2     1     3    1
    3     1     4    1
    4     1     5    1
    5     5     6    1
    6     5     7    1
    7     5     8    1
    8     8     9    1
    9     8    10    1
   10     8    11    1
   11    11    12    1
   12    11    13    1
   13    11    14    1
   14    14    15    1
   15    14    16    1
   16    14    17    1
   17    17    18    1
   18    17    19    1
   19    17    20    1
@<TRIPOS>SUBSTRUCTURE
       1 MOL1            1 RESIDUE      1      MOL     
@<SCITEGIC>MOL_PROPERTY
VConf Rank
SciTegic.value.IntegerValue
754

@<SCITEGIC>MOL_PROPERTY
Conf_Id
SciTegic.value.IntegerValue
42

@<SCITEGIC>MOL_PROPERTY
Delta U+W
SciTegic.value.DoubleValue
0.508

@<SCITEGIC>MOL_PROPERTY
U+W
SciTegic.value.DoubleValue
-11.270

@<SCITEGIC>MOL_PROPERTY
Grad RMS
SciTegic.value.DoubleValue
0.000000

@<SCITEGIC>MOL_PROPERTY
U
SciTegic.value.DoubleValue
46.486

@<SCITEGIC>MOL_PROPERTY
W
SciTegic.value.DoubleValue
-57.756

@<SCITEGIC>MOL_PROPERTY
W(PB)
SciTegic.value.DoubleValue
-59.705

@<SCITEGIC>MOL_PROPERTY
W(SA)
SciTegic.value.DoubleValue
1.949

@<SCITEGIC>MOL_PROPERTY
Valence
SciTegic.value.DoubleValue
1.806

@<SCITEGIC>MOL_PROPERTY
Coulomb
SciTegic.value.DoubleValue
44.248

@<SCITEGIC>MOL_PROPERTY
VdW
SciTegic.value.DoubleValue
0.433

@<SCITEGIC>MOL_PROPERTY
VdW6
SciTegic.value.DoubleValue
-4.089

@<SCITEGIC>MOL_PROPERTY
VdW12
SciTegic.value.DoubleValue
4.522

@<SCITEGIC>MOL_PROPERTY
Bond
SciTegic.value.DoubleValue
0.131

@<SCITEGIC>MOL_PROPERTY
Angle
SciTegic.value.DoubleValue
0.628

@<SCITEGIC>MOL_PROPERTY
Pdih
SciTegic.value.DoubleValue
1.047

@<SCITEGIC>MOL_PROPERTY
Idih
SciTegic.value.DoubleValue
0.000

@<SCITEGIC>MOL_PROPERTY
Tether
SciTegic.value.DoubleValue
0.000

@<TRIPOS>MOLECULE
guest-s11_confgen4.mol2 : confsearch ligand conformer 755
          20          19           1
SMALL
USER_CHARGES
 
@<TRIPOS>ATOM
       1    N1      21.035903   21.789210   23.369873 N.4        1 MOL1        -0.5919
       2    H1      20.467774   22.334333   22.713798 H          1 MOL1         0.3682
       3    H2      20.497598   21.706542   24.238048 H          1 MOL1         0.3682
       4    H3      21.863981   22.354044   23.586281 H          1 MOL1         0.3682
       5    C1      21.410826   20.434164   22.804307 C.3        1 MOL1         0.0252
       6    H4      22.037356   19.922821   23.540171 H          1 MOL1         0.0971
       7    H5      22.005836   20.598216   21.901786 H          1 MOL1         0.0971
       8    C2      20.189542   19.559905   22.467547 C.3        1 MOL1        -0.1369
       9    H6      19.590767   19.416778   23.375870 H          1 MOL1         0.0997
      10    H7      19.555114   20.083962   21.740445 H          1 MOL1         0.0997
      11    C3      20.618477   18.189500   21.892099 C.3        1 MOL1        -0.1329
      12    H8      21.215006   17.645351   22.637514 H          1 MOL1         0.0997
      13    H9      21.279004   18.354662   21.029447 H          1 MOL1         0.0997
      14    C4      19.428002   17.309467   21.439353 C.3        1 MOL1        -0.1305
      15    H10     18.842112   17.840478   20.676046 H          1 MOL1         0.0997
      16    H11     19.822147   16.407281   20.950838 H          1 MOL1         0.0997
      17    C5      18.502198   16.882425   22.601272 C.3        1 MOL1        -0.2320
      18    H12     17.988812   17.743927   23.045876 H          1 MOL1         0.1008
      19    H13     17.730817   16.188677   22.242610 H          1 MOL1         0.1008
      20    H14     19.069066   16.373668   23.391740 H          1 MOL1         0.1008
@<TRIPOS>BOND
    1     1     2    1
    2     1     3    1
    3     1     4    1
    4     1     5    1
    5     5     6    1
    6     5     7    1
    7     5     8    1
    8     8     9    1
    9     8    10    1
   10     8    11    1
   11    11    12    1
   12    11    13    1
   13    11    14    1
   14    14    15    1
   15    14    16    1
   16    14    17    1
   17    17    18    1
   18    17    19    1
   19    17    20    1
@<TRIPOS>SUBSTRUCTURE
       1 MOL1            1 RESIDUE      1      MOL     
@<SCITEGIC>MOL_PROPERTY
VConf Rank
SciTegic.value.IntegerValue
755

@<SCITEGIC>MOL_PROPERTY
Conf_Id
SciTegic.value.IntegerValue
41

@<SCITEGIC>MOL_PROPERTY
Delta U+W
SciTegic.value.DoubleValue
0.515

@<SCITEGIC>MOL_PROPERTY
U+W
SciTegic.value.DoubleValue
-11.263

@<SCITEGIC>MOL_PROPERTY
Grad RMS
SciTegic.value.DoubleValue
0.000000

@<SCITEGIC>MOL_PROPERTY
U
SciTegic.value.DoubleValue
46.486

@<SCITEGIC>MOL_PROPERTY
W
SciTegic.value.DoubleValue
-57.749

@<SCITEGIC>MOL_PROPERTY
W(PB)
SciTegic.value.DoubleValue
-59.685

@<SCITEGIC>MOL_PROPERTY
W(SA)
SciTegic.value.DoubleValue
1.936

@<SCITEGIC>MOL_PROPERTY
Valence
SciTegic.value.DoubleValue
1.806

@<SCITEGIC>MOL_PROPERTY
Coulomb
SciTegic.value.DoubleValue
44.248

@<SCITEGIC>MOL_PROPERTY
VdW
SciTegic.value.DoubleValue
0.433

@<SCITEGIC>MOL_PROPERTY
VdW6
SciTegic.value.DoubleValue
-4.089

@<SCITEGIC>MOL_PROPERTY
VdW12
SciTegic.value.DoubleValue
4.522

@<SCITEGIC>MOL_PROPERTY
Bond
SciTegic.value.DoubleValue
0.131

@<SCITEGIC>MOL_PROPERTY
Angle
SciTegic.value.DoubleValue
0.628

@<SCITEGIC>MOL_PROPERTY
Pdih
SciTegic.value.DoubleValue
1.047

@<SCITEGIC>MOL_PROPERTY
Idih
SciTegic.value.DoubleValue
0.000

@<SCITEGIC>MOL_PROPERTY
Tether
SciTegic.value.DoubleValue
0.000

@<TRIPOS>MOLECULE
guest-s11_confgen4.mol2 : confsearch ligand conformer 756
          20          19           1
SMALL
USER_CHARGES
 
@<TRIPOS>ATOM
       1    N1      20.918377   19.336681   19.815004 N.4        1 MOL1        -0.5919
       2    H1      21.372695   19.837920   19.044383 H          1 MOL1         0.3682
       3    H2      21.612274   18.688748   20.199229 H          1 MOL1         0.3682
       4    H3      20.170966   18.770134   19.401971 H          1 MOL1         0.3682
       5    C1      20.388378   20.288392   20.870234 C.3        1 MOL1         0.0252
       6    H4      19.691341   20.972244   20.378214 H          1 MOL1         0.0971
       7    H5      21.228300   20.875582   21.251260 H          1 MOL1         0.0971
       8    C2      19.672378   19.586945   22.041211 C.3        1 MOL1        -0.1369
       9    H6      19.228762   20.361374   22.679234 H          1 MOL1         0.0997
      10    H7      18.840296   18.984292   21.653735 H          1 MOL1         0.0997
      11    C3      20.625923   18.699688   22.880640 C.3        1 MOL1        -0.1329
      12    H8      21.443205   19.313692   23.283775 H          1 MOL1         0.0997
      13    H9      21.094916   17.949802   22.230008 H          1 MOL1         0.0997
      14    C4      19.916879   17.957681   24.039805 C.3        1 MOL1        -0.1305
      15    H10     19.107016   17.331319   23.640232 H          1 MOL1         0.0997
      16    H11     20.634298   17.269236   24.508092 H          1 MOL1         0.0997
      17    C5      19.355337   18.903774   25.125780 C.3        1 MOL1        -0.2320
      18    H12     18.543035   19.529507   24.736047 H          1 MOL1         0.1008
      19    H13     18.950495   18.325610   25.966481 H          1 MOL1         0.1008
      20    H14     20.139661   19.563129   25.519595 H          1 MOL1         0.1008
@<TRIPOS>BOND
    1     1     2    1
    2     1     3    1
    3     1     4    1
    4     1     5    1
    5     5     6    1
    6     5     7    1
    7     5     8    1
    8     8     9    1
    9     8    10    1
   10     8    11    1
   11    11    12    1
   12    11    13    1
   13    11    14    1
   14    14    15    1
   15    14    16    1
   16    14    17    1
   17    17    18    1
   18    17    19    1
   19    17    20    1
@<TRIPOS>SUBSTRUCTURE
       1 MOL1            1 RESIDUE      1      MOL     
@<SCITEGIC>MOL_PROPERTY
VConf Rank
SciTegic.value.IntegerValue
756

@<SCITEGIC>MOL_PROPERTY
Conf_Id
SciTegic.value.IntegerValue
33

@<SCITEGIC>MOL_PROPERTY
Delta U+W
SciTegic.value.DoubleValue
0.703

@<SCITEGIC>MOL_PROPERTY
U+W
SciTegic.value.DoubleValue
-11.075

@<SCITEGIC>MOL_PROPERTY
Grad RMS
SciTegic.value.DoubleValue
0.000000

@<SCITEGIC>MOL_PROPERTY
U
SciTegic.value.DoubleValue
47.080

@<SCITEGIC>MOL_PROPERTY
W
SciTegic.value.DoubleValue
-58.154

@<SCITEGIC>MOL_PROPERTY
W(PB)
SciTegic.value.DoubleValue
-60.053

@<SCITEGIC>MOL_PROPERTY
W(SA)
SciTegic.value.DoubleValue
1.899

@<SCITEGIC>MOL_PROPERTY
Valence
SciTegic.value.DoubleValue
1.943

@<SCITEGIC>MOL_PROPERTY
Coulomb
SciTegic.value.DoubleValue
44.572

@<SCITEGIC>MOL_PROPERTY
VdW
SciTegic.value.DoubleValue
0.565

@<SCITEGIC>MOL_PROPERTY
VdW6
SciTegic.value.DoubleValue
-4.575

@<SCITEGIC>MOL_PROPERTY
VdW12
SciTegic.value.DoubleValue
5.139

@<SCITEGIC>MOL_PROPERTY
Bond
SciTegic.value.DoubleValue
0.158

@<SCITEGIC>MOL_PROPERTY
Angle
SciTegic.value.DoubleValue
0.700

@<SCITEGIC>MOL_PROPERTY
Pdih
SciTegic.value.DoubleValue
1.085

@<SCITEGIC>MOL_PROPERTY
Idih
SciTegic.value.DoubleValue
0.000

@<SCITEGIC>MOL_PROPERTY
Tether
SciTegic.value.DoubleValue
0.000

@<TRIPOS>MOLECULE
guest-s11_confgen4.mol2 : confsearch ligand conformer 757
          20          19           1
SMALL
USER_CHARGES
 
@<TRIPOS>ATOM
       1    N1      18.652379   16.973250   23.349441 N.4        1 MOL1        -0.5919
       2    H1      18.012126   16.533973   24.019226 H          1 MOL1         0.3682
       3    H2      18.479142   16.533904   22.439959 H          1 MOL1         0.3682
       4    H3      19.602484   16.717051   23.633346 H          1 MOL1         0.3682
       5    C1      18.464792   18.477253   23.295155 C.3        1 MOL1         0.0252
       6    H4      18.640665   18.878261   24.297006 H          1 MOL1         0.0971
       7    H5      17.421764   18.670754   23.030109 H          1 MOL1         0.0971
       8    C2      19.387074   19.185795   22.283610 C.3        1 MOL1        -0.1369
       9    H6      19.220634   18.768919   21.281511 H          1 MOL1         0.0997
      10    H7      19.091331   20.241276   22.237733 H          1 MOL1         0.0997
      11    C3      20.885740   19.077813   22.662368 C.3        1 MOL1        -0.1329
      12    H8      21.167148   18.019517   22.742556 H          1 MOL1         0.0997
      13    H9      21.048486   19.517131   23.656340 H          1 MOL1         0.0997
      14    C4      21.830617   19.752563   21.638212 C.3        1 MOL1        -0.1305
      15    H10     22.869908   19.532393   21.919885 H          1 MOL1         0.0997
      16    H11     21.681322   19.307032   20.644693 H          1 MOL1         0.0997
      17    C5      21.653610   21.285900   21.552696 C.3        1 MOL1        -0.2320
      18    H12     21.766943   21.752548   22.539813 H          1 MOL1         0.1008
      19    H13     22.409045   21.722917   20.886901 H          1 MOL1         0.1008
      20    H14     20.668243   21.557484   21.154494 H          1 MOL1         0.1008
@<TRIPOS>BOND
    1     1     2    1
    2     1     3    1
    3     1     4    1
    4     1     5    1
    5     5     6    1
    6     5     7    1
    7     5     8    1
    8     8     9    1
    9     8    10    1
   10     8    11    1
   11    11    12    1
   12    11    13    1
   13    11    14    1
   14    14    15    1
   15    14    16    1
   16    14    17    1
   17    17    18    1
   18    17    19    1
   19    17    20    1
@<TRIPOS>SUBSTRUCTURE
       1 MOL1            1 RESIDUE      1      MOL     
@<SCITEGIC>MOL_PROPERTY
VConf Rank
SciTegic.value.IntegerValue
757

@<SCITEGIC>MOL_PROPERTY
Conf_Id
SciTegic.value.IntegerValue
24

@<SCITEGIC>MOL_PROPERTY
Delta U+W
SciTegic.value.DoubleValue
0.847

@<SCITEGIC>MOL_PROPERTY
U+W
SciTegic.value.DoubleValue
-10.931

@<SCITEGIC>MOL_PROPERTY
Grad RMS
SciTegic.value.DoubleValue
0.000000

@<SCITEGIC>MOL_PROPERTY
U
SciTegic.value.DoubleValue
47.080

@<SCITEGIC>MOL_PROPERTY
W
SciTegic.value.DoubleValue
-58.011

@<SCITEGIC>MOL_PROPERTY
W(PB)
SciTegic.value.DoubleValue
-59.914

@<SCITEGIC>MOL_PROPERTY
W(SA)
SciTegic.value.DoubleValue
1.903

@<SCITEGIC>MOL_PROPERTY
Valence
SciTegic.value.DoubleValue
1.943

@<SCITEGIC>MOL_PROPERTY
Coulomb
SciTegic.value.DoubleValue
44.572

@<SCITEGIC>MOL_PROPERTY
VdW
SciTegic.value.DoubleValue
0.565

@<SCITEGIC>MOL_PROPERTY
VdW6
SciTegic.value.DoubleValue
-4.575

@<SCITEGIC>MOL_PROPERTY
VdW12
SciTegic.value.DoubleValue
5.140

@<SCITEGIC>MOL_PROPERTY
Bond
SciTegic.value.DoubleValue
0.158

@<SCITEGIC>MOL_PROPERTY
Angle
SciTegic.value.DoubleValue
0.700

@<SCITEGIC>MOL_PROPERTY
Pdih
SciTegic.value.DoubleValue
1.085

@<SCITEGIC>MOL_PROPERTY
Idih
SciTegic.value.DoubleValue
0.000

@<SCITEGIC>MOL_PROPERTY
Tether
SciTegic.value.DoubleValue
0.000

@<TRIPOS>MOLECULE
guest-s11_confgen4.mol2 : confsearch ligand conformer 758
          20          19           1
SMALL
USER_CHARGES
 
@<TRIPOS>ATOM
       1    N1      22.159877   18.856304   24.309918 N.4        1 MOL1        -0.5919
       2    H1      22.912063   18.160425   24.271747 H          1 MOL1         0.3682
       3    H2      22.576576   19.758573   24.059930 H          1 MOL1         0.3682
       4    H3      21.865230   18.921592   25.289321 H          1 MOL1         0.3682
       5    C1      21.008058   18.491332   23.395349 C.3        1 MOL1         0.0252
       6    H4      20.632851   17.510379   23.699205 H          1 MOL1         0.0971
       7    H5      21.399863   18.409771   22.378088 H          1 MOL1         0.0971
       8    C2      19.860125   19.517866   23.428549 C.3        1 MOL1        -0.1369
       9    H6      19.502008   19.622654   24.461279 H          1 MOL1         0.0997
      10    H7      20.237678   20.504907   23.132479 H          1 MOL1         0.0997
      11    C3      18.668177   19.113670   22.525287 C.3        1 MOL1        -0.1329
      12    H8      17.884605   19.879723   22.605532 H          1 MOL1         0.0997
      13    H9      18.224751   18.186390   22.913897 H          1 MOL1         0.0997
      14    C4      19.024581   18.907803   21.030690 C.3        1 MOL1        -0.1305
      15    H10     19.729410   18.072486   20.920055 H          1 MOL1         0.0997
      16    H11     18.114977   18.607375   20.491946 H          1 MOL1         0.0997
      17    C5      19.606820   20.171738   20.358029 C.3        1 MOL1        -0.2320
      18    H12     19.754120   20.002194   19.283571 H          1 MOL1         0.1008
      19    H13     18.929364   21.027811   20.472780 H          1 MOL1         0.1008
      20    H14     20.580147   20.443297   20.785260 H          1 MOL1         0.1008
@<TRIPOS>BOND
    1     1     2    1
    2     1     3    1
    3     1     4    1
    4     1     5    1
    5     5     6    1
    6     5     7    1
    7     5     8    1
    8     8     9    1
    9     8    10    1
   10     8    11    1
   11    11    12    1
   12    11    13    1
   13    11    14    1
   14    14    15    1
   15    14    16    1
   16    14    17    1
   17    17    18    1
   18    17    19    1
   19    17    20    1
@<TRIPOS>SUBSTRUCTURE
       1 MOL1            1 RESIDUE      1      MOL     
@<SCITEGIC>MOL_PROPERTY
VConf Rank
SciTegic.value.IntegerValue
758

@<SCITEGIC>MOL_PROPERTY
Conf_Id
SciTegic.value.IntegerValue
64

@<SCITEGIC>MOL_PROPERTY
Delta U+W
SciTegic.value.DoubleValue
0.707

@<SCITEGIC>MOL_PROPERTY
U+W
SciTegic.value.DoubleValue
-11.070

@<SCITEGIC>MOL_PROPERTY
Grad RMS
SciTegic.value.DoubleValue
0.000000

@<SCITEGIC>MOL_PROPERTY
U
SciTegic.value.DoubleValue
47.077

@<SCITEGIC>MOL_PROPERTY
W
SciTegic.value.DoubleValue
-58.148

@<SCITEGIC>MOL_PROPERTY
W(PB)
SciTegic.value.DoubleValue
-60.054

@<SCITEGIC>MOL_PROPERTY
W(SA)
SciTegic.value.DoubleValue
1.906

@<SCITEGIC>MOL_PROPERTY
Valence
SciTegic.value.DoubleValue
2.039

@<SCITEGIC>MOL_PROPERTY
Coulomb
SciTegic.value.DoubleValue
44.655

@<SCITEGIC>MOL_PROPERTY
VdW
SciTegic.value.DoubleValue
0.383

@<SCITEGIC>MOL_PROPERTY
VdW6
SciTegic.value.DoubleValue
-4.912

@<SCITEGIC>MOL_PROPERTY
VdW12
SciTegic.value.DoubleValue
5.295

@<SCITEGIC>MOL_PROPERTY
Bond
SciTegic.value.DoubleValue
0.159

@<SCITEGIC>MOL_PROPERTY
Angle
SciTegic.value.DoubleValue
0.856

@<SCITEGIC>MOL_PROPERTY
Pdih
SciTegic.value.DoubleValue
1.024

@<SCITEGIC>MOL_PROPERTY
Idih
SciTegic.value.DoubleValue
0.000

@<SCITEGIC>MOL_PROPERTY
Tether
SciTegic.value.DoubleValue
0.000

@<TRIPOS>MOLECULE
guest-s11_confgen4.mol2 : confsearch ligand conformer 759
          20          19           1
SMALL
USER_CHARGES
 
@<TRIPOS>ATOM
       1    N1      21.158234   21.071709   20.882158 N.4        1 MOL1        -0.5919
       2    H1      20.506892   21.851086   20.745657 H          1 MOL1         0.3682
       3    H2      21.829550   21.362344   21.599855 H          1 MOL1         0.3682
       4    H3      21.683895   20.967272   20.007938 H          1 MOL1         0.3682
       5    C1      20.439387   19.793288   21.263244 C.3        1 MOL1         0.0252
       6    H4      21.188586   19.003363   21.361754 H          1 MOL1         0.0971
       7    H5      19.765022   19.527733   20.444654 H          1 MOL1         0.0971
       8    C2      19.639583   19.916306   22.573893 C.3        1 MOL1        -0.1369
       9    H6      20.314148   20.191844   23.394561 H          1 MOL1         0.0997
      10    H7      18.918849   20.739255   22.478719 H          1 MOL1         0.0997
      11    C3      18.871959   18.619124   22.931759 C.3        1 MOL1        -0.1329
      12    H8      18.114088   18.428677   22.159194 H          1 MOL1         0.0997
      13    H9      18.316709   18.780054   23.866137 H          1 MOL1         0.0997
      14    C4      19.760096   17.357295   23.080839 C.3        1 MOL1        -0.1305
      15    H10     19.113721   16.499753   23.314722 H          1 MOL1         0.0997
      16    H11     20.243011   17.117714   22.123671 H          1 MOL1         0.0997
      17    C5      20.832839   17.487904   24.185905 C.3        1 MOL1        -0.2320
      18    H12     20.376983   17.747837   25.150066 H          1 MOL1         0.1008
      19    H13     21.370431   16.539469   24.313856 H          1 MOL1         0.1008
      20    H14     21.575234   18.256604   23.937739 H          1 MOL1         0.1008
@<TRIPOS>BOND
    1     1     2    1
    2     1     3    1
    3     1     4    1
    4     1     5    1
    5     5     6    1
    6     5     7    1
    7     5     8    1
    8     8     9    1
    9     8    10    1
   10     8    11    1
   11    11    12    1
   12    11    13    1
   13    11    14    1
   14    14    15    1
   15    14    16    1
   16    14    17    1
   17    17    18    1
   18    17    19    1
   19    17    20    1
@<TRIPOS>SUBSTRUCTURE
       1 MOL1            1 RESIDUE      1      MOL     
@<SCITEGIC>MOL_PROPERTY
VConf Rank
SciTegic.value.IntegerValue
759

@<SCITEGIC>MOL_PROPERTY
Conf_Id
SciTegic.value.IntegerValue
22

@<SCITEGIC>MOL_PROPERTY
Delta U+W
SciTegic.value.DoubleValue
0.731

@<SCITEGIC>MOL_PROPERTY
U+W
SciTegic.value.DoubleValue
-11.047

@<SCITEGIC>MOL_PROPERTY
Grad RMS
SciTegic.value.DoubleValue
0.000000

@<SCITEGIC>MOL_PROPERTY
U
SciTegic.value.DoubleValue
47.078

@<SCITEGIC>MOL_PROPERTY
W
SciTegic.value.DoubleValue
-58.125

@<SCITEGIC>MOL_PROPERTY
W(PB)
SciTegic.value.DoubleValue
-60.031

@<SCITEGIC>MOL_PROPERTY
W(SA)
SciTegic.value.DoubleValue
1.906

@<SCITEGIC>MOL_PROPERTY
Valence
SciTegic.value.DoubleValue
2.039

@<SCITEGIC>MOL_PROPERTY
Coulomb
SciTegic.value.DoubleValue
44.655

@<SCITEGIC>MOL_PROPERTY
VdW
SciTegic.value.DoubleValue
0.383

@<SCITEGIC>MOL_PROPERTY
VdW6
SciTegic.value.DoubleValue
-4.913

@<SCITEGIC>MOL_PROPERTY
VdW12
SciTegic.value.DoubleValue
5.296

@<SCITEGIC>MOL_PROPERTY
Bond
SciTegic.value.DoubleValue
0.159

@<SCITEGIC>MOL_PROPERTY
Angle
SciTegic.value.DoubleValue
0.856

@<SCITEGIC>MOL_PROPERTY
Pdih
SciTegic.value.DoubleValue
1.024

@<SCITEGIC>MOL_PROPERTY
Idih
SciTegic.value.DoubleValue
0.000

@<SCITEGIC>MOL_PROPERTY
Tether
SciTegic.value.DoubleValue
0.000

@<TRIPOS>MOLECULE
guest-s11_confgen4.mol2 : confsearch ligand conformer 760
          20          19           1
SMALL
USER_CHARGES
 
@<TRIPOS>ATOM
       1    N1      18.614633   17.265720   23.670949 N.4        1 MOL1        -0.5919
       2    H1      18.983049   16.410478   23.242970 H          1 MOL1         0.3682
       3    H2      18.768507   17.187269   24.681137 H          1 MOL1         0.3682
       4    H3      17.599871   17.258698   23.523639 H          1 MOL1         0.3682
       5    C1      19.259110   18.510424   23.094779 C.3        1 MOL1         0.0252
       6    H4      18.802271   19.380654   23.573731 H          1 MOL1         0.0971
       7    H5      19.028145   18.539620   22.027507 H          1 MOL1         0.0971
       8    C2      20.784623   18.548680   23.294824 C.3        1 MOL1        -0.1369
       9    H6      21.004867   18.397857   24.360032 H          1 MOL1         0.0997
      10    H7      21.244537   17.706465   22.761028 H          1 MOL1         0.0997
      11    C3      21.444754   19.875260   22.840594 C.3        1 MOL1        -0.1329
      12    H8      22.508107   19.824611   23.113113 H          1 MOL1         0.0997
      13    H9      21.032226   20.718651   23.411437 H          1 MOL1         0.0997
      14    C4      21.353524   20.162809   21.319350 C.3        1 MOL1        -0.1305
      15    H10     22.218793   20.776740   21.032120 H          1 MOL1         0.0997
      16    H11     21.444367   19.228156   20.748463 H          1 MOL1         0.0997
      17    C5      20.074029   20.924815   20.900930 C.3        1 MOL1        -0.2320
      18    H12     19.165772   20.337518   21.071300 H          1 MOL1         0.1008
      19    H13     19.978744   21.868028   21.454348 H          1 MOL1         0.1008
      20    H14     20.108680   21.170159   19.831542 H          1 MOL1         0.1008
@<TRIPOS>BOND
    1     1     2    1
    2     1     3    1
    3     1     4    1
    4     1     5    1
    5     5     6    1
    6     5     7    1
    7     5     8    1
    8     8     9    1
    9     8    10    1
   10     8    11    1
   11    11    12    1
   12    11    13    1
   13    11    14    1
   14    14    15    1
   15    14    16    1
   16    14    17    1
   17    17    18    1
   18    17    19    1
   19    17    20    1
@<TRIPOS>SUBSTRUCTURE
       1 MOL1            1 RESIDUE      1      MOL     
@<SCITEGIC>MOL_PROPERTY
VConf Rank
SciTegic.value.IntegerValue
760

@<SCITEGIC>MOL_PROPERTY
Conf_Id
SciTegic.value.IntegerValue
61

@<SCITEGIC>MOL_PROPERTY
Delta U+W
SciTegic.value.DoubleValue
2.669

@<SCITEGIC>MOL_PROPERTY
U+W
SciTegic.value.DoubleValue
-9.108

@<SCITEGIC>MOL_PROPERTY
Grad RMS
SciTegic.value.DoubleValue
0.000000

@<SCITEGIC>MOL_PROPERTY
U
SciTegic.value.DoubleValue
48.916

@<SCITEGIC>MOL_PROPERTY
W
SciTegic.value.DoubleValue
-58.025

@<SCITEGIC>MOL_PROPERTY
W(PB)
SciTegic.value.DoubleValue
-59.935

@<SCITEGIC>MOL_PROPERTY
W(SA)
SciTegic.value.DoubleValue
1.911

@<SCITEGIC>MOL_PROPERTY
Valence
SciTegic.value.DoubleValue
3.785

@<SCITEGIC>MOL_PROPERTY
Coulomb
SciTegic.value.DoubleValue
44.716

@<SCITEGIC>MOL_PROPERTY
VdW
SciTegic.value.DoubleValue
0.415

@<SCITEGIC>MOL_PROPERTY
VdW6
SciTegic.value.DoubleValue
-4.836

@<SCITEGIC>MOL_PROPERTY
VdW12
SciTegic.value.DoubleValue
5.251

@<SCITEGIC>MOL_PROPERTY
Bond
SciTegic.value.DoubleValue
0.175

@<SCITEGIC>MOL_PROPERTY
Angle
SciTegic.value.DoubleValue
1.195

@<SCITEGIC>MOL_PROPERTY
Pdih
SciTegic.value.DoubleValue
2.415

@<SCITEGIC>MOL_PROPERTY
Idih
SciTegic.value.DoubleValue
0.000

@<SCITEGIC>MOL_PROPERTY
Tether
SciTegic.value.DoubleValue
0.000

@<TRIPOS>MOLECULE
guest-s11_confgen4.mol2 : confsearch ligand conformer 761
          20          19           1
SMALL
USER_CHARGES
 
@<TRIPOS>ATOM
       1    N1      18.937184   18.576213   24.324508 N.4        1 MOL1        -0.5919
       2    H1      18.906931   18.680607   25.344228 H          1 MOL1         0.3682
       3    H2      18.153583   17.968692   24.065299 H          1 MOL1         0.3682
       4    H3      19.798203   18.071184   24.099525 H          1 MOL1         0.3682
       5    C1      18.865904   19.917640   23.620189 C.3        1 MOL1         0.0252
       6    H4      19.689062   20.542777   23.976493 H          1 MOL1         0.0971
       7    H5      17.927536   20.388034   23.926381 H          1 MOL1         0.0971
       8    C2      18.902944   19.830392   22.079900 C.3        1 MOL1        -0.1369
       9    H6      18.265555   19.005814   21.734037 H          1 MOL1         0.0997
      10    H7      18.449030   20.748093   21.682837 H          1 MOL1         0.0997
      11    C3      20.325028   19.704582   21.475236 C.3        1 MOL1        -0.1329
      12    H8      20.931653   20.567310   21.783736 H          1 MOL1         0.0997
      13    H9      20.238105   19.768080   20.381667 H          1 MOL1         0.0997
      14    C4      21.064560   18.396581   21.842027 C.3        1 MOL1        -0.1305
      15    H10     21.295933   18.383400   22.914474 H          1 MOL1         0.0997
      16    H11     20.418925   17.531501   21.635306 H          1 MOL1         0.0997
      17    C5      22.383190   18.248783   21.053110 C.3        1 MOL1        -0.2320
      18    H12     22.900017   17.321261   21.331760 H          1 MOL1         0.1008
      19    H13     22.196019   18.217096   19.971822 H          1 MOL1         0.1008
      20    H14     23.061934   19.086989   21.258015 H          1 MOL1         0.1008
@<TRIPOS>BOND
    1     1     2    1
    2     1     3    1
    3     1     4    1
    4     1     5    1
    5     5     6    1
    6     5     7    1
    7     5     8    1
    8     8     9    1
    9     8    10    1
   10     8    11    1
   11    11    12    1
   12    11    13    1
   13    11    14    1
   14    14    15    1
   15    14    16    1
   16    14    17    1
   17    17    18    1
   18    17    19    1
   19    17    20    1
@<TRIPOS>SUBSTRUCTURE
       1 MOL1            1 RESIDUE      1      MOL     
@<SCITEGIC>MOL_PROPERTY
VConf Rank
SciTegic.value.IntegerValue
761

@<SCITEGIC>MOL_PROPERTY
Conf_Id
SciTegic.value.IntegerValue
69

@<SCITEGIC>MOL_PROPERTY
Delta U+W
SciTegic.value.DoubleValue
2.811

@<SCITEGIC>MOL_PROPERTY
U+W
SciTegic.value.DoubleValue
-8.967

@<SCITEGIC>MOL_PROPERTY
Grad RMS
SciTegic.value.DoubleValue
0.000000

@<SCITEGIC>MOL_PROPERTY
U
SciTegic.value.DoubleValue
49.216

@<SCITEGIC>MOL_PROPERTY
W
SciTegic.value.DoubleValue
-58.183

@<SCITEGIC>MOL_PROPERTY
W(PB)
SciTegic.value.DoubleValue
-60.064

@<SCITEGIC>MOL_PROPERTY
W(SA)
SciTegic.value.DoubleValue
1.881

@<SCITEGIC>MOL_PROPERTY
Valence
SciTegic.value.DoubleValue
2.929

@<SCITEGIC>MOL_PROPERTY
Coulomb
SciTegic.value.DoubleValue
46.006

@<SCITEGIC>MOL_PROPERTY
VdW
SciTegic.value.DoubleValue
0.281

@<SCITEGIC>MOL_PROPERTY
VdW6
SciTegic.value.DoubleValue
-4.909

@<SCITEGIC>MOL_PROPERTY
VdW12
SciTegic.value.DoubleValue
5.190

@<SCITEGIC>MOL_PROPERTY
Bond
SciTegic.value.DoubleValue
0.156

@<SCITEGIC>MOL_PROPERTY
Angle
SciTegic.value.DoubleValue
0.974

@<SCITEGIC>MOL_PROPERTY
Pdih
SciTegic.value.DoubleValue
1.799

@<SCITEGIC>MOL_PROPERTY
Idih
SciTegic.value.DoubleValue
0.000

@<SCITEGIC>MOL_PROPERTY
Tether
SciTegic.value.DoubleValue
0.000

@<TRIPOS>MOLECULE
guest-s11_confgen4.mol2 : confsearch ligand conformer 762
          20          19           1
SMALL
USER_CHARGES
 
@<TRIPOS>ATOM
       1    N1      19.509395   18.696846   20.252482 N.4        1 MOL1        -0.5919
       2    H1      19.587087   17.956640   20.954684 H          1 MOL1         0.3682
       3    H2      18.511440   18.897404   20.133461 H          1 MOL1         0.3682
       4    H3      19.841346   18.305696   19.364534 H          1 MOL1         0.3682
       5    C1      20.289253   19.936634   20.646584 C.3        1 MOL1         0.0252
       6    H4      20.160563   20.663074   19.839563 H          1 MOL1         0.0971
       7    H5      21.350126   19.678228   20.702378 H          1 MOL1         0.0971
       8    C2      19.835683   20.578243   21.974774 C.3        1 MOL1        -0.1369
       9    H6      20.148044   21.630905   21.960461 H          1 MOL1         0.0997
      10    H7      18.739137   20.590846   22.031705 H          1 MOL1         0.0997
      11    C3      20.435405   19.922756   23.245382 C.3        1 MOL1        -0.1329
      12    H8      20.139682   20.527595   24.113827 H          1 MOL1         0.0997
      13    H9      21.532226   19.970901   23.199233 H          1 MOL1         0.0997
      14    C4      19.992941   18.459717   23.482143 C.3        1 MOL1        -0.1305
      15    H10     18.897982   18.385967   23.422408 H          1 MOL1         0.0997
      16    H11     20.407779   17.810262   22.701138 H          1 MOL1         0.0997
      17    C5      20.464894   17.938505   24.856412 C.3        1 MOL1        -0.2320
      18    H12     20.040528   18.536456   25.673474 H          1 MOL1         0.1008
      19    H13     20.151510   16.896943   25.004704 H          1 MOL1         0.1008
      20    H14     21.559052   17.975767   24.938270 H          1 MOL1         0.1008
@<TRIPOS>BOND
    1     1     2    1
    2     1     3    1
    3     1     4    1
    4     1     5    1
    5     5     6    1
    6     5     7    1
    7     5     8    1
    8     8     9    1
    9     8    10    1
   10     8    11    1
   11    11    12    1
   12    11    13    1
   13    11    14    1
   14    14    15    1
   15    14    16    1
   16    14    17    1
   17    17    18    1
   18    17    19    1
   19    17    20    1
@<TRIPOS>SUBSTRUCTURE
       1 MOL1            1 RESIDUE      1      MOL     
@<SCITEGIC>MOL_PROPERTY
VConf Rank
SciTegic.value.IntegerValue
762

@<SCITEGIC>MOL_PROPERTY
Conf_Id
SciTegic.value.IntegerValue
26

@<SCITEGIC>MOL_PROPERTY
Delta U+W
SciTegic.value.DoubleValue
2.809

@<SCITEGIC>MOL_PROPERTY
U+W
SciTegic.value.DoubleValue
-8.969

@<SCITEGIC>MOL_PROPERTY
Grad RMS
SciTegic.value.DoubleValue
0.000000

@<SCITEGIC>MOL_PROPERTY
U
SciTegic.value.DoubleValue
49.216

@<SCITEGIC>MOL_PROPERTY
W
SciTegic.value.DoubleValue
-58.185

@<SCITEGIC>MOL_PROPERTY
W(PB)
SciTegic.value.DoubleValue
-60.088

@<SCITEGIC>MOL_PROPERTY
W(SA)
SciTegic.value.DoubleValue
1.903

@<SCITEGIC>MOL_PROPERTY
Valence
SciTegic.value.DoubleValue
2.929

@<SCITEGIC>MOL_PROPERTY
Coulomb
SciTegic.value.DoubleValue
46.006

@<SCITEGIC>MOL_PROPERTY
VdW
SciTegic.value.DoubleValue
0.281

@<SCITEGIC>MOL_PROPERTY
VdW6
SciTegic.value.DoubleValue
-4.909

@<SCITEGIC>MOL_PROPERTY
VdW12
SciTegic.value.DoubleValue
5.190

@<SCITEGIC>MOL_PROPERTY
Bond
SciTegic.value.DoubleValue
0.156

@<SCITEGIC>MOL_PROPERTY
Angle
SciTegic.value.DoubleValue
0.974

@<SCITEGIC>MOL_PROPERTY
Pdih
SciTegic.value.DoubleValue
1.799

@<SCITEGIC>MOL_PROPERTY
Idih
SciTegic.value.DoubleValue
0.000

@<SCITEGIC>MOL_PROPERTY
Tether
SciTegic.value.DoubleValue
0.000

@<TRIPOS>MOLECULE
guest-s11_confgen4.mol2 : confsearch ligand conformer 763
          20          19           1
SMALL
USER_CHARGES
 
@<TRIPOS>ATOM
       1    N1      21.800109   19.642039   20.775896 N.4        1 MOL1        -0.5919
       2    H1      20.941261   20.121583   20.490668 H          1 MOL1         0.3682
       3    H2      22.493515   20.365195   20.991003 H          1 MOL1         0.3682
       4    H3      22.145712   19.131489   19.956623 H          1 MOL1         0.3682
       5    C1      21.562472   18.720029   21.955907 C.3        1 MOL1         0.0252
       6    H4      22.508254   18.221336   22.184624 H          1 MOL1         0.0971
       7    H5      20.841863   17.956647   21.651109 H          1 MOL1         0.0971
       8    C2      21.048968   19.445980   23.215907 C.3        1 MOL1        -0.1369
       9    H6      20.978388   18.721675   24.037450 H          1 MOL1         0.0997
      10    H7      21.795109   20.186482   23.533031 H          1 MOL1         0.0997
      11    C3      19.680144   20.150561   23.023855 C.3        1 MOL1        -0.1329
      12    H8      19.796125   20.983707   22.317723 H          1 MOL1         0.0997
      13    H9      19.381633   20.608714   23.976842 H          1 MOL1         0.0997
      14    C4      18.537585   19.227621   22.528101 C.3        1 MOL1        -0.1305
      15    H10     17.627045   19.831004   22.406876 H          1 MOL1         0.0997
      16    H11     18.772883   18.833345   21.530264 H          1 MOL1         0.0997
      17    C5      18.234138   18.056793   23.490351 C.3        1 MOL1        -0.2320
      18    H12     18.011569   18.423681   24.500707 H          1 MOL1         0.1008
      19    H13     17.363142   17.487573   23.140725 H          1 MOL1         0.1008
      20    H14     19.078957   17.359940   23.555779 H          1 MOL1         0.1008
@<TRIPOS>BOND
    1     1     2    1
    2     1     3    1
    3     1     4    1
    4     1     5    1
    5     5     6    1
    6     5     7    1
    7     5     8    1
    8     8     9    1
    9     8    10    1
   10     8    11    1
   11    11    12    1
   12    11    13    1
   13    11    14    1
   14    14    15    1
   15    14    16    1
   16    14    17    1
   17    17    18    1
   18    17    19    1
   19    17    20    1
@<TRIPOS>SUBSTRUCTURE
       1 MOL1            1 RESIDUE      1      MOL     
@<SCITEGIC>MOL_PROPERTY
VConf Rank
SciTegic.value.IntegerValue
763

@<SCITEGIC>MOL_PROPERTY
Conf_Id
SciTegic.value.IntegerValue
2

@<SCITEGIC>MOL_PROPERTY
Delta U+W
SciTegic.value.DoubleValue
0.994

@<SCITEGIC>MOL_PROPERTY
U+W
SciTegic.value.DoubleValue
-10.784

@<SCITEGIC>MOL_PROPERTY
Grad RMS
SciTegic.value.DoubleValue
0.000000

@<SCITEGIC>MOL_PROPERTY
U
SciTegic.value.DoubleValue
47.562

@<SCITEGIC>MOL_PROPERTY
W
SciTegic.value.DoubleValue
-58.346

@<SCITEGIC>MOL_PROPERTY
W(PB)
SciTegic.value.DoubleValue
-60.221

@<SCITEGIC>MOL_PROPERTY
W(SA)
SciTegic.value.DoubleValue
1.875

@<SCITEGIC>MOL_PROPERTY
Valence
SciTegic.value.DoubleValue
2.149

@<SCITEGIC>MOL_PROPERTY
Coulomb
SciTegic.value.DoubleValue
45.034

@<SCITEGIC>MOL_PROPERTY
VdW
SciTegic.value.DoubleValue
0.378

@<SCITEGIC>MOL_PROPERTY
VdW6
SciTegic.value.DoubleValue
-5.599

@<SCITEGIC>MOL_PROPERTY
VdW12
SciTegic.value.DoubleValue
5.977

@<SCITEGIC>MOL_PROPERTY
Bond
SciTegic.value.DoubleValue
0.185

@<SCITEGIC>MOL_PROPERTY
Angle
SciTegic.value.DoubleValue
0.935

@<SCITEGIC>MOL_PROPERTY
Pdih
SciTegic.value.DoubleValue
1.028

@<SCITEGIC>MOL_PROPERTY
Idih
SciTegic.value.DoubleValue
0.000

@<SCITEGIC>MOL_PROPERTY
Tether
SciTegic.value.DoubleValue
0.000

@<TRIPOS>MOLECULE
guest-s11_confgen4.mol2 : confsearch ligand conformer 764
          20          19           1
SMALL
USER_CHARGES
 
@<TRIPOS>ATOM
       1    N1      18.446071   20.673852   23.048286 N.4        1 MOL1        -0.5919
       2    H1      18.383962   20.957812   24.030909 H          1 MOL1         0.3682
       3    H2      19.214749   21.204344   22.627986 H          1 MOL1         0.3682
       4    H3      17.581746   20.984694   22.592622 H          1 MOL1         0.3682
       5    C1      18.652449   19.178517   22.905531 C.3        1 MOL1         0.0252
       6    H4      18.676679   18.938970   21.839247 H          1 MOL1         0.0971
       7    H5      17.784983   18.679111   23.345537 H          1 MOL1         0.0971
       8    C2      19.938112   18.662938   23.583422 C.3        1 MOL1        -0.1369
       9    H6      19.888280   18.878266   24.658963 H          1 MOL1         0.0997
      10    H7      19.968655   17.569150   23.498405 H          1 MOL1         0.0997
      11    C3      21.243384   19.267072   23.001804 C.3        1 MOL1        -0.1329
      12    H8      22.102063   18.818881   23.520450 H          1 MOL1         0.0997
      13    H9      21.282874   20.339584   23.234972 H          1 MOL1         0.0997
      14    C4      21.422597   19.078603   21.473603 C.3        1 MOL1        -0.1305
      15    H10     20.625085   19.602530   20.929571 H          1 MOL1         0.0997
      16    H11     22.362244   19.560219   21.168714 H          1 MOL1         0.0997
      17    C5      21.459618   17.595847   21.038974 C.3        1 MOL1        -0.2320
      18    H12     20.498229   17.099110   21.219493 H          1 MOL1         0.1008
      19    H13     21.676531   17.514947   19.965993 H          1 MOL1         0.1008
      20    H14     22.238900   17.044828   21.581244 H          1 MOL1         0.1008
@<TRIPOS>BOND
    1     1     2    1
    2     1     3    1
    3     1     4    1
    4     1     5    1
    5     5     6    1
    6     5     7    1
    7     5     8    1
    8     8     9    1
    9     8    10    1
   10     8    11    1
   11    11    12    1
   12    11    13    1
   13    11    14    1
   14    14    15    1
   15    14    16    1
   16    14    17    1
   17    17    18    1
   18    17    19    1
   19    17    20    1
@<TRIPOS>SUBSTRUCTURE
       1 MOL1            1 RESIDUE      1      MOL     
@<SCITEGIC>MOL_PROPERTY
VConf Rank
SciTegic.value.IntegerValue
764

@<SCITEGIC>MOL_PROPERTY
Conf_Id
SciTegic.value.IntegerValue
1

@<SCITEGIC>MOL_PROPERTY
Delta U+W
SciTegic.value.DoubleValue
1.032

@<SCITEGIC>MOL_PROPERTY
U+W
SciTegic.value.DoubleValue
-10.746

@<SCITEGIC>MOL_PROPERTY
Grad RMS
SciTegic.value.DoubleValue
0.000000

@<SCITEGIC>MOL_PROPERTY
U
SciTegic.value.DoubleValue
47.562

@<SCITEGIC>MOL_PROPERTY
W
SciTegic.value.DoubleValue
-58.308

@<SCITEGIC>MOL_PROPERTY
W(PB)
SciTegic.value.DoubleValue
-60.184

@<SCITEGIC>MOL_PROPERTY
W(SA)
SciTegic.value.DoubleValue
1.877

@<SCITEGIC>MOL_PROPERTY
Valence
SciTegic.value.DoubleValue
2.149

@<SCITEGIC>MOL_PROPERTY
Coulomb
SciTegic.value.DoubleValue
45.035

@<SCITEGIC>MOL_PROPERTY
VdW
SciTegic.value.DoubleValue
0.378

@<SCITEGIC>MOL_PROPERTY
VdW6
SciTegic.value.DoubleValue
-5.599

@<SCITEGIC>MOL_PROPERTY
VdW12
SciTegic.value.DoubleValue
5.978

@<SCITEGIC>MOL_PROPERTY
Bond
SciTegic.value.DoubleValue
0.185

@<SCITEGIC>MOL_PROPERTY
Angle
SciTegic.value.DoubleValue
0.935

@<SCITEGIC>MOL_PROPERTY
Pdih
SciTegic.value.DoubleValue
1.028

@<SCITEGIC>MOL_PROPERTY
Idih
SciTegic.value.DoubleValue
0.000

@<SCITEGIC>MOL_PROPERTY
Tether
SciTegic.value.DoubleValue
0.000

@<TRIPOS>MOLECULE
guest-s11_confgen4.mol2 : confsearch ligand conformer 765
          20          19           1
SMALL
USER_CHARGES
 
@<TRIPOS>ATOM
       1    N1      19.155437   18.718332   24.517134 N.4        1 MOL1        -0.5919
       2    H1      18.622665   19.478898   24.950475 H          1 MOL1         0.3682
       3    H2      18.575762   18.331894   23.766583 H          1 MOL1         0.3682
       4    H3      19.256517   17.983985   25.225557 H          1 MOL1         0.3682
       5    C1      20.500615   19.193256   24.002645 C.3        1 MOL1         0.0252
       6    H4      21.023941   18.331802   23.584857 H          1 MOL1         0.0971
       7    H5      21.073795   19.549936   24.862743 H          1 MOL1         0.0971
       8    C2      20.404159   20.323184   22.955423 C.3        1 MOL1        -0.1369
       9    H6      19.864229   21.164041   23.410676 H          1 MOL1         0.0997
      10    H7      21.411428   20.698853   22.732039 H          1 MOL1         0.0997
      11    C3      19.692024   19.925654   21.634380 C.3        1 MOL1        -0.1329
      12    H8      19.311869   20.844807   21.167407 H          1 MOL1         0.0997
      13    H9      18.804010   19.314750   21.841630 H          1 MOL1         0.0997
      14    C4      20.592304   19.214733   20.591249 C.3        1 MOL1        -0.1305
      15    H10     20.006337   19.069369   19.672848 H          1 MOL1         0.0997
      16    H11     21.429255   19.871284   20.315143 H          1 MOL1         0.0997
      17    C5      21.142359   17.844157   21.043899 C.3        1 MOL1        -0.2320
      18    H12     20.342311   17.202368   21.434783 H          1 MOL1         0.1008
      19    H13     21.608033   17.321550   20.198347 H          1 MOL1         0.1008
      20    H14     21.912237   17.957907   21.816171 H          1 MOL1         0.1008
@<TRIPOS>BOND
    1     1     2    1
    2     1     3    1
    3     1     4    1
    4     1     5    1
    5     5     6    1
    6     5     7    1
    7     5     8    1
    8     8     9    1
    9     8    10    1
   10     8    11    1
   11    11    12    1
   12    11    13    1
   13    11    14    1
   14    14    15    1
   15    14    16    1
   16    14    17    1
   17    17    18    1
   18    17    19    1
   19    17    20    1
@<TRIPOS>SUBSTRUCTURE
       1 MOL1            1 RESIDUE      1      MOL     
@<SCITEGIC>MOL_PROPERTY
VConf Rank
SciTegic.value.IntegerValue
765

@<SCITEGIC>MOL_PROPERTY
Conf_Id
SciTegic.value.IntegerValue
80

@<SCITEGIC>MOL_PROPERTY
Delta U+W
SciTegic.value.DoubleValue
2.920

@<SCITEGIC>MOL_PROPERTY
U+W
SciTegic.value.DoubleValue
-8.857

@<SCITEGIC>MOL_PROPERTY
Grad RMS
SciTegic.value.DoubleValue
0.000000

@<SCITEGIC>MOL_PROPERTY
U
SciTegic.value.DoubleValue
49.434

@<SCITEGIC>MOL_PROPERTY
W
SciTegic.value.DoubleValue
-58.292

@<SCITEGIC>MOL_PROPERTY
W(PB)
SciTegic.value.DoubleValue
-60.170

@<SCITEGIC>MOL_PROPERTY
W(SA)
SciTegic.value.DoubleValue
1.879

@<SCITEGIC>MOL_PROPERTY
Valence
SciTegic.value.DoubleValue
3.798

@<SCITEGIC>MOL_PROPERTY
Coulomb
SciTegic.value.DoubleValue
45.253

@<SCITEGIC>MOL_PROPERTY
VdW
SciTegic.value.DoubleValue
0.384

@<SCITEGIC>MOL_PROPERTY
VdW6
SciTegic.value.DoubleValue
-5.595

@<SCITEGIC>MOL_PROPERTY
VdW12
SciTegic.value.DoubleValue
5.979

@<SCITEGIC>MOL_PROPERTY
Bond
SciTegic.value.DoubleValue
0.198

@<SCITEGIC>MOL_PROPERTY
Angle
SciTegic.value.DoubleValue
1.368

@<SCITEGIC>MOL_PROPERTY
Pdih
SciTegic.value.DoubleValue
2.231

@<SCITEGIC>MOL_PROPERTY
Idih
SciTegic.value.DoubleValue
0.000

@<SCITEGIC>MOL_PROPERTY
Tether
SciTegic.value.DoubleValue
0.000

@<TRIPOS>MOLECULE
guest-s11_confgen4.mol2 : confsearch ligand conformer 766
          20          19           1
SMALL
USER_CHARGES
 
@<TRIPOS>ATOM
       1    N1      19.586188   20.350077   24.424070 N.4        1 MOL1        -0.5919
       2    H1      20.241780   21.029283   24.822779 H          1 MOL1         0.3682
       3    H2      18.684179   20.498467   24.888513 H          1 MOL1         0.3682
       4    H3      19.912742   19.418354   24.695992 H          1 MOL1         0.3682
       5    C1      19.473966   20.490725   22.918288 C.3        1 MOL1         0.0252
       6    H4      19.081743   21.489914   22.710182 H          1 MOL1         0.0971
       7    H5      18.741233   19.762874   22.566362 H          1 MOL1         0.0971
       8    C2      20.813510   20.307978   22.173337 C.3        1 MOL1        -0.1369
       9    H6      20.675446   20.552147   21.111764 H          1 MOL1         0.0997
      10    H7      21.523285   21.050119   22.562267 H          1 MOL1         0.0997
      11    C3      21.442615   18.894736   22.304860 C.3        1 MOL1        -0.1329
      12    H8      21.351220   18.524256   23.333991 H          1 MOL1         0.0997
      13    H9      22.522193   18.988876   22.122999 H          1 MOL1         0.0997
      14    C4      20.896287   17.837586   21.310878 C.3        1 MOL1        -0.1305
      15    H10     21.077158   18.170418   20.279234 H          1 MOL1         0.0997
      16    H11     21.477947   16.913599   21.436849 H          1 MOL1         0.0997
      17    C5      19.398867   17.502097   21.487257 C.3        1 MOL1        -0.2320
      18    H12     18.761951   18.329139   21.152009 H          1 MOL1         0.1008
      19    H13     19.130947   16.623944   20.885596 H          1 MOL1         0.1008
      20    H14     19.161271   17.275658   22.534651 H          1 MOL1         0.1008
@<TRIPOS>BOND
    1     1     2    1
    2     1     3    1
    3     1     4    1
    4     1     5    1
    5     5     6    1
    6     5     7    1
    7     5     8    1
    8     8     9    1
    9     8    10    1
   10     8    11    1
   11    11    12    1
   12    11    13    1
   13    11    14    1
   14    14    15    1
   15    14    16    1
   16    14    17    1
   17    17    18    1
   18    17    19    1
   19    17    20    1
@<TRIPOS>SUBSTRUCTURE
       1 MOL1            1 RESIDUE      1      MOL     
@<SCITEGIC>MOL_PROPERTY
VConf Rank
SciTegic.value.IntegerValue
766

@<SCITEGIC>MOL_PROPERTY
Conf_Id
SciTegic.value.IntegerValue
65

@<SCITEGIC>MOL_PROPERTY
Delta U+W
SciTegic.value.DoubleValue
2.949

@<SCITEGIC>MOL_PROPERTY
U+W
SciTegic.value.DoubleValue
-8.829

@<SCITEGIC>MOL_PROPERTY
Grad RMS
SciTegic.value.DoubleValue
0.000000

@<SCITEGIC>MOL_PROPERTY
U
SciTegic.value.DoubleValue
49.435

@<SCITEGIC>MOL_PROPERTY
W
SciTegic.value.DoubleValue
-58.263

@<SCITEGIC>MOL_PROPERTY
W(PB)
SciTegic.value.DoubleValue
-60.125

@<SCITEGIC>MOL_PROPERTY
W(SA)
SciTegic.value.DoubleValue
1.862

@<SCITEGIC>MOL_PROPERTY
Valence
SciTegic.value.DoubleValue
3.797

@<SCITEGIC>MOL_PROPERTY
Coulomb
SciTegic.value.DoubleValue
45.253

@<SCITEGIC>MOL_PROPERTY
VdW
SciTegic.value.DoubleValue
0.384

@<SCITEGIC>MOL_PROPERTY
VdW6
SciTegic.value.DoubleValue
-5.596

@<SCITEGIC>MOL_PROPERTY
VdW12
SciTegic.value.DoubleValue
5.980

@<SCITEGIC>MOL_PROPERTY
Bond
SciTegic.value.DoubleValue
0.198

@<SCITEGIC>MOL_PROPERTY
Angle
SciTegic.value.DoubleValue
1.369

@<SCITEGIC>MOL_PROPERTY
Pdih
SciTegic.value.DoubleValue
2.230

@<SCITEGIC>MOL_PROPERTY
Idih
SciTegic.value.DoubleValue
0.000

@<SCITEGIC>MOL_PROPERTY
Tether
SciTegic.value.DoubleValue
0.000

@<TRIPOS>MOLECULE
guest-s11_confgen4.mol2 : confsearch ligand conformer 767
          20          19           1
SMALL
USER_CHARGES
 
@<TRIPOS>ATOM
       1    N1      18.511709   18.263509   23.083903 N.4        1 MOL1        -0.5919
       2    H1      17.976673   18.163863   23.953092 H          1 MOL1         0.3682
       3    H2      18.477560   19.251631   22.815252 H          1 MOL1         0.3682
       4    H3      18.010888   17.734018   22.363331 H          1 MOL1         0.3682
       5    C1      19.941074   17.782928   23.243630 C.3        1 MOL1         0.0252
       6    H4      19.893585   16.727839   23.526564 H          1 MOL1         0.0971
       7    H5      20.406560   18.333729   24.065300 H          1 MOL1         0.0971
       8    C2      20.795853   17.923958   21.967749 C.3        1 MOL1        -0.1369
       9    H6      21.622310   17.204418   22.038749 H          1 MOL1         0.0997
      10    H7      20.208952   17.618431   21.091387 H          1 MOL1         0.0997
      11    C3      21.411309   19.330174   21.736163 C.3        1 MOL1        -0.1329
      12    H8      22.032985   19.271419   20.831955 H          1 MOL1         0.0997
      13    H9      22.104541   19.574665   22.552937 H          1 MOL1         0.0997
      14    C4      20.390727   20.480573   21.542478 C.3        1 MOL1        -0.1305
      15    H10     20.798871   21.190682   20.809388 H          1 MOL1         0.0997
      16    H11     19.461557   20.099343   21.097989 H          1 MOL1         0.0997
      17    C5      20.100975   21.261772   22.846161 C.3        1 MOL1        -0.2320
      18    H12     19.755212   20.611508   23.656840 H          1 MOL1         0.1008
      19    H13     21.006129   21.773344   23.198740 H          1 MOL1         0.1008
      20    H14     19.333959   22.028415   22.675500 H          1 MOL1         0.1008
@<TRIPOS>BOND
    1     1     2    1
    2     1     3    1
    3     1     4    1
    4     1     5    1
    5     5     6    1
    6     5     7    1
    7     5     8    1
    8     8     9    1
    9     8    10    1
   10     8    11    1
   11    11    12    1
   12    11    13    1
   13    11    14    1
   14    14    15    1
   15    14    16    1
   16    14    17    1
   17    17    18    1
   18    17    19    1
   19    17    20    1
@<TRIPOS>SUBSTRUCTURE
       1 MOL1            1 RESIDUE      1      MOL     
@<SCITEGIC>MOL_PROPERTY
VConf Rank
SciTegic.value.IntegerValue
767

@<SCITEGIC>MOL_PROPERTY
Conf_Id
SciTegic.value.IntegerValue
77

@<SCITEGIC>MOL_PROPERTY
Delta U+W
SciTegic.value.DoubleValue
5.366

@<SCITEGIC>MOL_PROPERTY
U+W
SciTegic.value.DoubleValue
-6.412

@<SCITEGIC>MOL_PROPERTY
Grad RMS
SciTegic.value.DoubleValue
0.000000

@<SCITEGIC>MOL_PROPERTY
U
SciTegic.value.DoubleValue
51.542

@<SCITEGIC>MOL_PROPERTY
W
SciTegic.value.DoubleValue
-57.954

@<SCITEGIC>MOL_PROPERTY
W(PB)
SciTegic.value.DoubleValue
-59.811

@<SCITEGIC>MOL_PROPERTY
W(SA)
SciTegic.value.DoubleValue
1.857

@<SCITEGIC>MOL_PROPERTY
Valence
SciTegic.value.DoubleValue
5.347

@<SCITEGIC>MOL_PROPERTY
Coulomb
SciTegic.value.DoubleValue
45.870

@<SCITEGIC>MOL_PROPERTY
VdW
SciTegic.value.DoubleValue
0.325

@<SCITEGIC>MOL_PROPERTY
VdW6
SciTegic.value.DoubleValue
-6.161

@<SCITEGIC>MOL_PROPERTY
VdW12
SciTegic.value.DoubleValue
6.486

@<SCITEGIC>MOL_PROPERTY
Bond
SciTegic.value.DoubleValue
0.201

@<SCITEGIC>MOL_PROPERTY
Angle
SciTegic.value.DoubleValue
1.484

@<SCITEGIC>MOL_PROPERTY
Pdih
SciTegic.value.DoubleValue
3.662

@<SCITEGIC>MOL_PROPERTY
Idih
SciTegic.value.DoubleValue
0.000

@<SCITEGIC>MOL_PROPERTY
Tether
SciTegic.value.DoubleValue
0.000

@<TRIPOS>MOLECULE
guest-s11_confgen4.mol2 : confsearch ligand conformer 768
          20          19           1
SMALL
USER_CHARGES
 
@<TRIPOS>ATOM
       1    N1      21.213394   17.696698   21.409129 N.4        1 MOL1        -0.5919
       2    H1      21.087207   16.723926   21.706111 H          1 MOL1         0.3682
       3    H2      20.298304   18.044314   21.106640 H          1 MOL1         0.3682
       4    H3      21.822522   17.680011   20.584285 H          1 MOL1         0.3682
       5    C1      21.791028   18.553274   22.519163 C.3        1 MOL1         0.0252
       6    H4      21.965814   19.560045   22.130494 H          1 MOL1         0.0971
       7    H5      22.758782   18.120076   22.786206 H          1 MOL1         0.0971
       8    C2      20.906326   18.624818   23.780351 C.3        1 MOL1        -0.1369
       9    H6      20.503319   17.629214   24.008749 H          1 MOL1         0.0997
      10    H7      21.554049   18.885906   24.627758 H          1 MOL1         0.0997
      11    C3      19.757541   19.667404   23.724031 C.3        1 MOL1        -0.1329
      12    H8      20.174768   20.679628   23.630284 H          1 MOL1         0.0997
      13    H9      19.249618   19.648953   24.698300 H          1 MOL1         0.0997
      14    C4      18.692805   19.426987   22.623551 C.3        1 MOL1        -0.1305
      15    H10     18.605717   18.355094   22.400565 H          1 MOL1         0.0997
      16    H11     17.710738   19.727664   23.015211 H          1 MOL1         0.0997
      17    C5      18.956659   20.240993   21.334523 C.3        1 MOL1        -0.2320
      18    H12     18.212415   19.998680   20.564739 H          1 MOL1         0.1008
      19    H13     18.884007   21.317693   21.536417 H          1 MOL1         0.1008
      20    H14     19.950863   20.052492   20.915452 H          1 MOL1         0.1008
@<TRIPOS>BOND
    1     1     2    1
    2     1     3    1
    3     1     4    1
    4     1     5    1
    5     5     6    1
    6     5     7    1
    7     5     8    1
    8     8     9    1
    9     8    10    1
   10     8    11    1
   11    11    12    1
   12    11    13    1
   13    11    14    1
   14    14    15    1
   15    14    16    1
   16    14    17    1
   17    17    18    1
   18    17    19    1
   19    17    20    1
@<TRIPOS>SUBSTRUCTURE
       1 MOL1            1 RESIDUE      1      MOL     
@<SCITEGIC>MOL_PROPERTY
VConf Rank
SciTegic.value.IntegerValue
768

@<SCITEGIC>MOL_PROPERTY
Conf_Id
SciTegic.value.IntegerValue
67

@<SCITEGIC>MOL_PROPERTY
Delta U+W
SciTegic.value.DoubleValue
5.353

@<SCITEGIC>MOL_PROPERTY
U+W
SciTegic.value.DoubleValue
-6.425

@<SCITEGIC>MOL_PROPERTY
Grad RMS
SciTegic.value.DoubleValue
0.000000

@<SCITEGIC>MOL_PROPERTY
U
SciTegic.value.DoubleValue
51.541

@<SCITEGIC>MOL_PROPERTY
W
SciTegic.value.DoubleValue
-57.966

@<SCITEGIC>MOL_PROPERTY
W(PB)
SciTegic.value.DoubleValue
-59.821

@<SCITEGIC>MOL_PROPERTY
W(SA)
SciTegic.value.DoubleValue
1.855

@<SCITEGIC>MOL_PROPERTY
Valence
SciTegic.value.DoubleValue
5.347

@<SCITEGIC>MOL_PROPERTY
Coulomb
SciTegic.value.DoubleValue
45.870

@<SCITEGIC>MOL_PROPERTY
VdW
SciTegic.value.DoubleValue
0.325

@<SCITEGIC>MOL_PROPERTY
VdW6
SciTegic.value.DoubleValue
-6.161

@<SCITEGIC>MOL_PROPERTY
VdW12
SciTegic.value.DoubleValue
6.486

@<SCITEGIC>MOL_PROPERTY
Bond
SciTegic.value.DoubleValue
0.201

@<SCITEGIC>MOL_PROPERTY
Angle
SciTegic.value.DoubleValue
1.485

@<SCITEGIC>MOL_PROPERTY
Pdih
SciTegic.value.DoubleValue
3.662

@<SCITEGIC>MOL_PROPERTY
Idih
SciTegic.value.DoubleValue
0.000

@<SCITEGIC>MOL_PROPERTY
Tether
SciTegic.value.DoubleValue
0.000

@<TRIPOS>MOLECULE
guest-s11_confgen4.mol2 : confsearch ligand conformer 769
          20          19           1
SMALL
USER_CHARGES
 
@<TRIPOS>ATOM
       1    N1      19.726945   22.282389   22.008654 N.4        1 MOL1        -0.5919
       2    H1      19.420232   22.523516   22.956373 H          1 MOL1         0.3682
       3    H2      20.279552   23.074746   21.664567 H          1 MOL1         0.3682
       4    H3      18.886639   22.230306   21.424222 H          1 MOL1         0.3682
       5    C1      20.517709   20.989952   21.980595 C.3        1 MOL1         0.0252
       6    H4      21.410282   21.126928   22.597091 H          1 MOL1         0.0971
       7    H5      20.836500   20.811622   20.950019 H          1 MOL1         0.0971
       8    C2      19.716277   19.779218   22.491569 C.3        1 MOL1        -0.1369
       9    H6      19.384611   19.969317   23.521097 H          1 MOL1         0.0997
      10    H7      18.812795   19.655084   21.879703 H          1 MOL1         0.0997
      11    C3      20.557221   18.484027   22.446568 C.3        1 MOL1        -0.1329
      12    H8      21.462873   18.613596   23.055498 H          1 MOL1         0.0997
      13    H9      20.891677   18.299684   21.416059 H          1 MOL1         0.0997
      14    C4      19.762509   17.261385   22.957566 C.3        1 MOL1        -0.1305
      15    H10     19.427769   17.440746   23.988986 H          1 MOL1         0.0997
      16    H11     18.856709   17.126810   22.349730 H          1 MOL1         0.0997
      17    C5      20.606641   15.969783   22.910862 C.3        1 MOL1        -0.2320
      18    H12     21.503382   16.061045   23.537555 H          1 MOL1         0.1008
      19    H13     20.025721   15.113460   23.277313 H          1 MOL1         0.1008
      20    H14     20.927749   15.744574   21.885492 H          1 MOL1         0.1008
@<TRIPOS>BOND
    1     1     2    1
    2     1     3    1
    3     1     4    1
    4     1     5    1
    5     5     6    1
    6     5     7    1
    7     5     8    1
    8     8     9    1
    9     8    10    1
   10     8    11    1
   11    11    12    1
   12    11    13    1
   13    11    14    1
   14    14    15    1
   15    14    16    1
   16    14    17    1
   17    17    18    1
   18    17    19    1
   19    17    20    1
@<TRIPOS>SUBSTRUCTURE
       1 MOL1            1 RESIDUE      1      MOL     
@<SCITEGIC>MOL_PROPERTY
VConf Rank
SciTegic.value.IntegerValue
769

@<SCITEGIC>MOL_PROPERTY
Conf_Id
SciTegic.value.IntegerValue
72

@<SCITEGIC>MOL_PROPERTY
Delta U+W
SciTegic.value.DoubleValue
0.000

@<SCITEGIC>MOL_PROPERTY
U+W
SciTegic.value.DoubleValue
-11.778

@<SCITEGIC>MOL_PROPERTY
Grad RMS
SciTegic.value.DoubleValue
0.000000

@<SCITEGIC>MOL_PROPERTY
U
SciTegic.value.DoubleValue
45.772

@<SCITEGIC>MOL_PROPERTY
W
SciTegic.value.DoubleValue
-57.550

@<SCITEGIC>MOL_PROPERTY
W(PB)
SciTegic.value.DoubleValue
-59.511

@<SCITEGIC>MOL_PROPERTY
W(SA)
SciTegic.value.DoubleValue
1.961

@<SCITEGIC>MOL_PROPERTY
Valence
SciTegic.value.DoubleValue
1.299

@<SCITEGIC>MOL_PROPERTY
Coulomb
SciTegic.value.DoubleValue
44.177

@<SCITEGIC>MOL_PROPERTY
VdW
SciTegic.value.DoubleValue
0.297

@<SCITEGIC>MOL_PROPERTY
VdW6
SciTegic.value.DoubleValue
-3.490

@<SCITEGIC>MOL_PROPERTY
VdW12
SciTegic.value.DoubleValue
3.786

@<SCITEGIC>MOL_PROPERTY
Bond
SciTegic.value.DoubleValue
0.096

@<SCITEGIC>MOL_PROPERTY
Angle
SciTegic.value.DoubleValue
0.381

@<SCITEGIC>MOL_PROPERTY
Pdih
SciTegic.value.DoubleValue
0.822

@<SCITEGIC>MOL_PROPERTY
Idih
SciTegic.value.DoubleValue
0.000

@<SCITEGIC>MOL_PROPERTY
Tether
SciTegic.value.DoubleValue
0.000

@<TRIPOS>MOLECULE
guest-s11_confgen4.mol2 : confsearch ligand conformer 770
          20          19           1
SMALL
USER_CHARGES
 
@<TRIPOS>ATOM
       1    N1      18.993616   16.386513   22.524897 N.4        1 MOL1        -0.5919
       2    H1      19.915360   15.998750   22.749316 H          1 MOL1         0.3682
       3    H2      18.474837   16.459570   23.405746 H          1 MOL1         0.3682
       4    H3      18.508888   15.687956   21.951626 H          1 MOL1         0.3682
       5    C1      19.097844   17.722062   21.816363 C.3        1 MOL1         0.0252
       6    H4      18.084628   18.059382   21.581625 H          1 MOL1         0.0971
       7    H5      19.633548   17.564609   20.876291 H          1 MOL1         0.0971
       8    C2      19.820558   18.794975   22.650516 C.3        1 MOL1        -0.1369
       9    H6      19.288377   18.938410   23.600263 H          1 MOL1         0.0997
      10    H7      20.829127   18.438558   22.895099 H          1 MOL1         0.0997
      11    C3      19.901716   20.140047   21.890697 C.3        1 MOL1        -0.1329
      12    H8      18.889189   20.441586   21.588032 H          1 MOL1         0.0997
      13    H9      20.474245   20.006747   20.962243 H          1 MOL1         0.0997
      14    C4      20.527512   21.284210   22.724927 C.3        1 MOL1        -0.1305
      15    H10     20.450849   22.219907   22.153495 H          1 MOL1         0.0997
      16    H11     19.943687   21.437040   23.643441 H          1 MOL1         0.0997
      17    C5      22.010790   21.041502   23.086185 C.3        1 MOL1        -0.2320
      18    H12     22.611805   20.857801   22.186157 H          1 MOL1         0.1008
      19    H13     22.430336   21.918409   23.596056 H          1 MOL1         0.1008
      20    H14     22.127115   20.182863   23.758963 H          1 MOL1         0.1008
@<TRIPOS>BOND
    1     1     2    1
    2     1     3    1
    3     1     4    1
    4     1     5    1
    5     5     6    1
    6     5     7    1
    7     5     8    1
    8     8     9    1
    9     8    10    1
   10     8    11    1
   11    11    12    1
   12    11    13    1
   13    11    14    1
   14    14    15    1
   15    14    16    1
   16    14    17    1
   17    17    18    1
   18    17    19    1
   19    17    20    1
@<TRIPOS>SUBSTRUCTURE
       1 MOL1            1 RESIDUE      1      MOL     
@<SCITEGIC>MOL_PROPERTY
VConf Rank
SciTegic.value.IntegerValue
770

@<SCITEGIC>MOL_PROPERTY
Conf_Id
SciTegic.value.IntegerValue
42

@<SCITEGIC>MOL_PROPERTY
Delta U+W
SciTegic.value.DoubleValue
0.508

@<SCITEGIC>MOL_PROPERTY
U+W
SciTegic.value.DoubleValue
-11.270

@<SCITEGIC>MOL_PROPERTY
Grad RMS
SciTegic.value.DoubleValue
0.000000

@<SCITEGIC>MOL_PROPERTY
U
SciTegic.value.DoubleValue
46.486

@<SCITEGIC>MOL_PROPERTY
W
SciTegic.value.DoubleValue
-57.756

@<SCITEGIC>MOL_PROPERTY
W(PB)
SciTegic.value.DoubleValue
-59.705

@<SCITEGIC>MOL_PROPERTY
W(SA)
SciTegic.value.DoubleValue
1.949

@<SCITEGIC>MOL_PROPERTY
Valence
SciTegic.value.DoubleValue
1.806

@<SCITEGIC>MOL_PROPERTY
Coulomb
SciTegic.value.DoubleValue
44.248

@<SCITEGIC>MOL_PROPERTY
VdW
SciTegic.value.DoubleValue
0.433

@<SCITEGIC>MOL_PROPERTY
VdW6
SciTegic.value.DoubleValue
-4.089

@<SCITEGIC>MOL_PROPERTY
VdW12
SciTegic.value.DoubleValue
4.522

@<SCITEGIC>MOL_PROPERTY
Bond
SciTegic.value.DoubleValue
0.131

@<SCITEGIC>MOL_PROPERTY
Angle
SciTegic.value.DoubleValue
0.628

@<SCITEGIC>MOL_PROPERTY
Pdih
SciTegic.value.DoubleValue
1.047

@<SCITEGIC>MOL_PROPERTY
Idih
SciTegic.value.DoubleValue
0.000

@<SCITEGIC>MOL_PROPERTY
Tether
SciTegic.value.DoubleValue
0.000

@<TRIPOS>MOLECULE
guest-s11_confgen4.mol2 : confsearch ligand conformer 771
          20          19           1
SMALL
USER_CHARGES
 
@<TRIPOS>ATOM
       1    N1      19.764907   16.831365   20.502575 N.4        1 MOL1        -0.5919
       2    H1      20.631319   16.966940   19.972185 H          1 MOL1         0.3682
       3    H2      19.958382   16.126166   21.220626 H          1 MOL1         0.3682
       4    H3      19.082891   16.419062   19.857252 H          1 MOL1         0.3682
       5    C1      19.259504   18.127737   21.103047 C.3        1 MOL1         0.0252
       6    H4      18.322860   17.915197   21.625573 H          1 MOL1         0.0971
       7    H5      19.045846   18.818636   20.282984 H          1 MOL1         0.0971
       8    C2      20.260534   18.774258   22.077326 C.3        1 MOL1        -0.1369
       9    H6      20.481083   18.065910   22.885825 H          1 MOL1         0.0997
      10    H7      21.204816   18.971377   21.552648 H          1 MOL1         0.0997
      11    C3      19.705069   20.093788   22.663359 C.3        1 MOL1        -0.1329
      12    H8      18.784456   19.889620   23.227604 H          1 MOL1         0.0997
      13    H9      19.419142   20.759723   21.837212 H          1 MOL1         0.0997
      14    C4      20.713525   20.839775   23.570656 C.3        1 MOL1        -0.1305
      15    H10     21.626805   21.067212   23.003143 H          1 MOL1         0.0997
      16    H11     20.280797   21.808749   23.856619 H          1 MOL1         0.0997
      17    C5      21.079767   20.059815   24.854035 C.3        1 MOL1        -0.2320
      18    H12     21.625079   19.136313   24.623379 H          1 MOL1         0.1008
      19    H13     21.722730   20.668411   25.503004 H          1 MOL1         0.1008
      20    H14     20.180829   19.795359   25.425864 H          1 MOL1         0.1008
@<TRIPOS>BOND
    1     1     2    1
    2     1     3    1
    3     1     4    1
    4     1     5    1
    5     5     6    1
    6     5     7    1
    7     5     8    1
    8     8     9    1
    9     8    10    1
   10     8    11    1
   11    11    12    1
   12    11    13    1
   13    11    14    1
   14    14    15    1
   15    14    16    1
   16    14    17    1
   17    17    18    1
   18    17    19    1
   19    17    20    1
@<TRIPOS>SUBSTRUCTURE
       1 MOL1            1 RESIDUE      1      MOL     
@<SCITEGIC>MOL_PROPERTY
VConf Rank
SciTegic.value.IntegerValue
771

@<SCITEGIC>MOL_PROPERTY
Conf_Id
SciTegic.value.IntegerValue
41

@<SCITEGIC>MOL_PROPERTY
Delta U+W
SciTegic.value.DoubleValue
0.515

@<SCITEGIC>MOL_PROPERTY
U+W
SciTegic.value.DoubleValue
-11.263

@<SCITEGIC>MOL_PROPERTY
Grad RMS
SciTegic.value.DoubleValue
0.000000

@<SCITEGIC>MOL_PROPERTY
U
SciTegic.value.DoubleValue
46.486

@<SCITEGIC>MOL_PROPERTY
W
SciTegic.value.DoubleValue
-57.749

@<SCITEGIC>MOL_PROPERTY
W(PB)
SciTegic.value.DoubleValue
-59.685

@<SCITEGIC>MOL_PROPERTY
W(SA)
SciTegic.value.DoubleValue
1.936

@<SCITEGIC>MOL_PROPERTY
Valence
SciTegic.value.DoubleValue
1.806

@<SCITEGIC>MOL_PROPERTY
Coulomb
SciTegic.value.DoubleValue
44.248

@<SCITEGIC>MOL_PROPERTY
VdW
SciTegic.value.DoubleValue
0.433

@<SCITEGIC>MOL_PROPERTY
VdW6
SciTegic.value.DoubleValue
-4.089

@<SCITEGIC>MOL_PROPERTY
VdW12
SciTegic.value.DoubleValue
4.522

@<SCITEGIC>MOL_PROPERTY
Bond
SciTegic.value.DoubleValue
0.131

@<SCITEGIC>MOL_PROPERTY
Angle
SciTegic.value.DoubleValue
0.628

@<SCITEGIC>MOL_PROPERTY
Pdih
SciTegic.value.DoubleValue
1.047

@<SCITEGIC>MOL_PROPERTY
Idih
SciTegic.value.DoubleValue
0.000

@<SCITEGIC>MOL_PROPERTY
Tether
SciTegic.value.DoubleValue
0.000

@<TRIPOS>MOLECULE
guest-s11_confgen4.mol2 : confsearch ligand conformer 772
          20          19           1
SMALL
USER_CHARGES
 
@<TRIPOS>ATOM
       1    N1      20.517994   18.520748   19.789906 N.4        1 MOL1        -0.5919
       2    H1      20.462257   18.759487   18.794216 H          1 MOL1         0.3682
       3    H2      21.465915   18.754007   20.099706 H          1 MOL1         0.3682
       4    H3      20.418886   17.503037   19.858003 H          1 MOL1         0.3682
       5    C1      19.463032   19.246686   20.602453 C.3        1 MOL1         0.0252
       6    H4      18.486602   18.983069   20.186892 H          1 MOL1         0.0971
       7    H5      19.610353   20.321705   20.468023 H          1 MOL1         0.0971
       8    C2      19.486277   18.903878   22.105055 C.3        1 MOL1        -0.1369
       9    H6      18.619034   19.384044   22.575095 H          1 MOL1         0.0997
      10    H7      19.355585   17.821539   22.236014 H          1 MOL1         0.0997
      11    C3      20.787113   19.371108   22.805512 C.3        1 MOL1        -0.1329
      12    H8      20.899424   20.458065   22.689847 H          1 MOL1         0.0997
      13    H9      21.653810   18.916331   22.307897 H          1 MOL1         0.0997
      14    C4      20.844673   19.002697   24.308157 C.3        1 MOL1        -0.1305
      15    H10     20.746455   17.914686   24.428372 H          1 MOL1         0.0997
      16    H11     21.838363   19.265640   24.697234 H          1 MOL1         0.0997
      17    C5      19.772267   19.719176   25.160428 C.3        1 MOL1        -0.2320
      18    H12     18.759487   19.393521   24.893044 H          1 MOL1         0.1008
      19    H13     19.918063   19.498279   26.225744 H          1 MOL1         0.1008
      20    H14     19.828942   20.808046   25.033331 H          1 MOL1         0.1008
@<TRIPOS>BOND
    1     1     2    1
    2     1     3    1
    3     1     4    1
    4     1     5    1
    5     5     6    1
    6     5     7    1
    7     5     8    1
    8     8     9    1
    9     8    10    1
   10     8    11    1
   11    11    12    1
   12    11    13    1
   13    11    14    1
   14    14    15    1
   15    14    16    1
   16    14    17    1
   17    17    18    1
   18    17    19    1
   19    17    20    1
@<TRIPOS>SUBSTRUCTURE
       1 MOL1            1 RESIDUE      1      MOL     
@<SCITEGIC>MOL_PROPERTY
VConf Rank
SciTegic.value.IntegerValue
772

@<SCITEGIC>MOL_PROPERTY
Conf_Id
SciTegic.value.IntegerValue
33

@<SCITEGIC>MOL_PROPERTY
Delta U+W
SciTegic.value.DoubleValue
0.703

@<SCITEGIC>MOL_PROPERTY
U+W
SciTegic.value.DoubleValue
-11.075

@<SCITEGIC>MOL_PROPERTY
Grad RMS
SciTegic.value.DoubleValue
0.000000

@<SCITEGIC>MOL_PROPERTY
U
SciTegic.value.DoubleValue
47.080

@<SCITEGIC>MOL_PROPERTY
W
SciTegic.value.DoubleValue
-58.154

@<SCITEGIC>MOL_PROPERTY
W(PB)
SciTegic.value.DoubleValue
-60.053

@<SCITEGIC>MOL_PROPERTY
W(SA)
SciTegic.value.DoubleValue
1.899

@<SCITEGIC>MOL_PROPERTY
Valence
SciTegic.value.DoubleValue
1.943

@<SCITEGIC>MOL_PROPERTY
Coulomb
SciTegic.value.DoubleValue
44.572

@<SCITEGIC>MOL_PROPERTY
VdW
SciTegic.value.DoubleValue
0.565

@<SCITEGIC>MOL_PROPERTY
VdW6
SciTegic.value.DoubleValue
-4.575

@<SCITEGIC>MOL_PROPERTY
VdW12
SciTegic.value.DoubleValue
5.139

@<SCITEGIC>MOL_PROPERTY
Bond
SciTegic.value.DoubleValue
0.158

@<SCITEGIC>MOL_PROPERTY
Angle
SciTegic.value.DoubleValue
0.700

@<SCITEGIC>MOL_PROPERTY
Pdih
SciTegic.value.DoubleValue
1.085

@<SCITEGIC>MOL_PROPERTY
Idih
SciTegic.value.DoubleValue
0.000

@<SCITEGIC>MOL_PROPERTY
Tether
SciTegic.value.DoubleValue
0.000

@<TRIPOS>MOLECULE
guest-s11_confgen4.mol2 : confsearch ligand conformer 773
          20          19           1
SMALL
USER_CHARGES
 
@<TRIPOS>ATOM
       1    N1      22.550336   19.877797   23.609304 N.4        1 MOL1        -0.5919
       2    H1      23.126153   20.530050   24.151984 H          1 MOL1         0.3682
       3    H2      22.936081   18.940983   23.763488 H          1 MOL1         0.3682
       4    H3      22.693414   20.105218   22.620999 H          1 MOL1         0.3682
       5    C1      21.087580   19.958044   24.001819 C.3        1 MOL1         0.0252
       6    H4      20.746628   20.983488   23.835508 H          1 MOL1         0.0971
       7    H5      21.020823   19.747359   25.072686 H          1 MOL1         0.0971
       8    C2      20.179628   18.978385   23.232565 C.3        1 MOL1        -0.1369
       9    H6      20.534911   17.951014   23.387397 H          1 MOL1         0.0997
      10    H7      19.175328   19.032745   23.670783 H          1 MOL1         0.0997
      11    C3      20.107531   19.293480   21.717100 C.3        1 MOL1        -0.1329
      12    H8      21.119324   19.273553   21.291085 H          1 MOL1         0.0997
      13    H9      19.729967   20.314795   21.569352 H          1 MOL1         0.0997
      14    C4      19.228789   18.297597   20.921483 C.3        1 MOL1        -0.1305
      15    H10     19.323709   18.522707   19.849916 H          1 MOL1         0.0997
      16    H11     19.610649   17.275732   21.055053 H          1 MOL1         0.0997
      17    C5      17.733132   18.348863   21.308969 C.3        1 MOL1        -0.2320
      18    H12     17.334928   19.367416   21.214156 H          1 MOL1         0.1008
      19    H13     17.143821   17.696328   20.651810 H          1 MOL1         0.1008
      20    H14     17.570722   18.010180   22.339595 H          1 MOL1         0.1008
@<TRIPOS>BOND
    1     1     2    1
    2     1     3    1
    3     1     4    1
    4     1     5    1
    5     5     6    1
    6     5     7    1
    7     5     8    1
    8     8     9    1
    9     8    10    1
   10     8    11    1
   11    11    12    1
   12    11    13    1
   13    11    14    1
   14    14    15    1
   15    14    16    1
   16    14    17    1
   17    17    18    1
   18    17    19    1
   19    17    20    1
@<TRIPOS>SUBSTRUCTURE
       1 MOL1            1 RESIDUE      1      MOL     
@<SCITEGIC>MOL_PROPERTY
VConf Rank
SciTegic.value.IntegerValue
773

@<SCITEGIC>MOL_PROPERTY
Conf_Id
SciTegic.value.IntegerValue
24

@<SCITEGIC>MOL_PROPERTY
Delta U+W
SciTegic.value.DoubleValue
0.847

@<SCITEGIC>MOL_PROPERTY
U+W
SciTegic.value.DoubleValue
-10.931

@<SCITEGIC>MOL_PROPERTY
Grad RMS
SciTegic.value.DoubleValue
0.000000

@<SCITEGIC>MOL_PROPERTY
U
SciTegic.value.DoubleValue
47.080

@<SCITEGIC>MOL_PROPERTY
W
SciTegic.value.DoubleValue
-58.011

@<SCITEGIC>MOL_PROPERTY
W(PB)
SciTegic.value.DoubleValue
-59.914

@<SCITEGIC>MOL_PROPERTY
W(SA)
SciTegic.value.DoubleValue
1.903

@<SCITEGIC>MOL_PROPERTY
Valence
SciTegic.value.DoubleValue
1.943

@<SCITEGIC>MOL_PROPERTY
Coulomb
SciTegic.value.DoubleValue
44.572

@<SCITEGIC>MOL_PROPERTY
VdW
SciTegic.value.DoubleValue
0.565

@<SCITEGIC>MOL_PROPERTY
VdW6
SciTegic.value.DoubleValue
-4.575

@<SCITEGIC>MOL_PROPERTY
VdW12
SciTegic.value.DoubleValue
5.140

@<SCITEGIC>MOL_PROPERTY
Bond
SciTegic.value.DoubleValue
0.158

@<SCITEGIC>MOL_PROPERTY
Angle
SciTegic.value.DoubleValue
0.700

@<SCITEGIC>MOL_PROPERTY
Pdih
SciTegic.value.DoubleValue
1.085

@<SCITEGIC>MOL_PROPERTY
Idih
SciTegic.value.DoubleValue
0.000

@<SCITEGIC>MOL_PROPERTY
Tether
SciTegic.value.DoubleValue
0.000

@<TRIPOS>MOLECULE
guest-s11_confgen4.mol2 : confsearch ligand conformer 774
          20          19           1
SMALL
USER_CHARGES
 
@<TRIPOS>ATOM
       1    N1      22.483549   20.616414   22.305077 N.4        1 MOL1        -0.5919
       2    H1      22.820570   21.345098   22.942984 H          1 MOL1         0.3682
       3    H2      23.034194   19.774028   22.498463 H          1 MOL1         0.3682
       4    H3      22.720977   20.920090   21.355489 H          1 MOL1         0.3682
       5    C1      20.996886   20.370790   22.465794 C.3        1 MOL1         0.0252
       6    H4      20.475967   21.312809   22.274427 H          1 MOL1         0.0971
       7    H5      20.814635   20.081696   23.504154 H          1 MOL1         0.0971
       8    C2      20.458056   19.279909   21.521196 C.3        1 MOL1        -0.1369
       9    H6      20.683160   19.560251   20.483652 H          1 MOL1         0.0997
      10    H7      20.986685   18.336097   21.706196 H          1 MOL1         0.0997
      11    C3      18.929854   19.067487   21.660727 C.3        1 MOL1        -0.1329
      12    H8      18.612448   18.288609   20.953715 H          1 MOL1         0.0997
      13    H9      18.412438   19.985898   21.350415 H          1 MOL1         0.0997
      14    C4      18.453389   18.683694   23.085125 C.3        1 MOL1        -0.1305
      15    H10     18.667830   19.498818   23.789658 H          1 MOL1         0.0997
      16    H11     17.359578   18.577484   23.071746 H          1 MOL1         0.0997
      17    C5      19.074752   17.368337   23.607381 C.3        1 MOL1        -0.2320
      18    H12     18.636277   17.093847   24.575522 H          1 MOL1         0.1008
      19    H13     18.891917   16.540879   22.909628 H          1 MOL1         0.1008
      20    H14     20.158119   17.464057   23.751566 H          1 MOL1         0.1008
@<TRIPOS>BOND
    1     1     2    1
    2     1     3    1
    3     1     4    1
    4     1     5    1
    5     5     6    1
    6     5     7    1
    7     5     8    1
    8     8     9    1
    9     8    10    1
   10     8    11    1
   11    11    12    1
   12    11    13    1
   13    11    14    1
   14    14    15    1
   15    14    16    1
   16    14    17    1
   17    17    18    1
   18    17    19    1
   19    17    20    1
@<TRIPOS>SUBSTRUCTURE
       1 MOL1            1 RESIDUE      1      MOL     
@<SCITEGIC>MOL_PROPERTY
VConf Rank
SciTegic.value.IntegerValue
774

@<SCITEGIC>MOL_PROPERTY
Conf_Id
SciTegic.value.IntegerValue
64

@<SCITEGIC>MOL_PROPERTY
Delta U+W
SciTegic.value.DoubleValue
0.707

@<SCITEGIC>MOL_PROPERTY
U+W
SciTegic.value.DoubleValue
-11.070

@<SCITEGIC>MOL_PROPERTY
Grad RMS
SciTegic.value.DoubleValue
0.000000

@<SCITEGIC>MOL_PROPERTY
U
SciTegic.value.DoubleValue
47.077

@<SCITEGIC>MOL_PROPERTY
W
SciTegic.value.DoubleValue
-58.148

@<SCITEGIC>MOL_PROPERTY
W(PB)
SciTegic.value.DoubleValue
-60.054

@<SCITEGIC>MOL_PROPERTY
W(SA)
SciTegic.value.DoubleValue
1.906

@<SCITEGIC>MOL_PROPERTY
Valence
SciTegic.value.DoubleValue
2.039

@<SCITEGIC>MOL_PROPERTY
Coulomb
SciTegic.value.DoubleValue
44.655

@<SCITEGIC>MOL_PROPERTY
VdW
SciTegic.value.DoubleValue
0.383

@<SCITEGIC>MOL_PROPERTY
VdW6
SciTegic.value.DoubleValue
-4.912

@<SCITEGIC>MOL_PROPERTY
VdW12
SciTegic.value.DoubleValue
5.295

@<SCITEGIC>MOL_PROPERTY
Bond
SciTegic.value.DoubleValue
0.159

@<SCITEGIC>MOL_PROPERTY
Angle
SciTegic.value.DoubleValue
0.856

@<SCITEGIC>MOL_PROPERTY
Pdih
SciTegic.value.DoubleValue
1.024

@<SCITEGIC>MOL_PROPERTY
Idih
SciTegic.value.DoubleValue
0.000

@<SCITEGIC>MOL_PROPERTY
Tether
SciTegic.value.DoubleValue
0.000

@<TRIPOS>MOLECULE
guest-s11_confgen4.mol2 : confsearch ligand conformer 775
          20          19           1
SMALL
USER_CHARGES
 
@<TRIPOS>ATOM
       1    N1      19.143893   18.357714   20.056763 N.4        1 MOL1        -0.5919
       2    H1      18.182850   18.679106   19.903755 H          1 MOL1         0.3682
       3    H2      19.762084   19.013402   19.568772 H          1 MOL1         0.3682
       4    H3      19.234090   17.453733   19.581188 H          1 MOL1         0.3682
       5    C1      19.478252   18.254265   21.531154 C.3        1 MOL1         0.0252
       6    H4      20.501316   17.879040   21.617936 H          1 MOL1         0.0971
       7    H5      18.803428   17.520527   21.980175 H          1 MOL1         0.0971
       8    C2      19.353001   19.596812   22.275802 C.3        1 MOL1        -0.1369
       9    H6      20.023292   20.336698   21.820024 H          1 MOL1         0.0997
      10    H7      18.333824   19.984817   22.147385 H          1 MOL1         0.0997
      11    C3      19.652769   19.472387   23.790614 C.3        1 MOL1        -0.1329
      12    H8      18.893973   18.825381   24.252248 H          1 MOL1         0.0997
      13    H9      19.533937   20.458956   24.259467 H          1 MOL1         0.0997
      14    C4      21.058290   18.914774   24.132376 C.3        1 MOL1        -0.1305
      15    H10     21.153929   18.852235   25.225456 H          1 MOL1         0.0997
      16    H11     21.158580   17.885329   23.762293 H          1 MOL1         0.0997
      17    C5      22.213734   19.780409   23.580440 C.3        1 MOL1        -0.2320
      18    H12     22.124774   20.820592   23.919676 H          1 MOL1         0.1008
      19    H13     23.181650   19.396060   23.927309 H          1 MOL1         0.1008
      20    H14     22.231550   19.776394   22.483488 H          1 MOL1         0.1008
@<TRIPOS>BOND
    1     1     2    1
    2     1     3    1
    3     1     4    1
    4     1     5    1
    5     5     6    1
    6     5     7    1
    7     5     8    1
    8     8     9    1
    9     8    10    1
   10     8    11    1
   11    11    12    1
   12    11    13    1
   13    11    14    1
   14    14    15    1
   15    14    16    1
   16    14    17    1
   17    17    18    1
   18    17    19    1
   19    17    20    1
@<TRIPOS>SUBSTRUCTURE
       1 MOL1            1 RESIDUE      1      MOL     
@<SCITEGIC>MOL_PROPERTY
VConf Rank
SciTegic.value.IntegerValue
775

@<SCITEGIC>MOL_PROPERTY
Conf_Id
SciTegic.value.IntegerValue
22

@<SCITEGIC>MOL_PROPERTY
Delta U+W
SciTegic.value.DoubleValue
0.731

@<SCITEGIC>MOL_PROPERTY
U+W
SciTegic.value.DoubleValue
-11.047

@<SCITEGIC>MOL_PROPERTY
Grad RMS
SciTegic.value.DoubleValue
0.000000

@<SCITEGIC>MOL_PROPERTY
U
SciTegic.value.DoubleValue
47.078

@<SCITEGIC>MOL_PROPERTY
W
SciTegic.value.DoubleValue
-58.125

@<SCITEGIC>MOL_PROPERTY
W(PB)
SciTegic.value.DoubleValue
-60.031

@<SCITEGIC>MOL_PROPERTY
W(SA)
SciTegic.value.DoubleValue
1.906

@<SCITEGIC>MOL_PROPERTY
Valence
SciTegic.value.DoubleValue
2.039

@<SCITEGIC>MOL_PROPERTY
Coulomb
SciTegic.value.DoubleValue
44.655

@<SCITEGIC>MOL_PROPERTY
VdW
SciTegic.value.DoubleValue
0.383

@<SCITEGIC>MOL_PROPERTY
VdW6
SciTegic.value.DoubleValue
-4.913

@<SCITEGIC>MOL_PROPERTY
VdW12
SciTegic.value.DoubleValue
5.296

@<SCITEGIC>MOL_PROPERTY
Bond
SciTegic.value.DoubleValue
0.159

@<SCITEGIC>MOL_PROPERTY
Angle
SciTegic.value.DoubleValue
0.856

@<SCITEGIC>MOL_PROPERTY
Pdih
SciTegic.value.DoubleValue
1.024

@<SCITEGIC>MOL_PROPERTY
Idih
SciTegic.value.DoubleValue
0.000

@<SCITEGIC>MOL_PROPERTY
Tether
SciTegic.value.DoubleValue
0.000

@<TRIPOS>MOLECULE
guest-s11_confgen4.mol2 : confsearch ligand conformer 776
          20          19           1
SMALL
USER_CHARGES
 
@<TRIPOS>ATOM
       1    N1      18.601697   19.389022   20.247917 N.4        1 MOL1        -0.5919
       2    H1      17.770250   19.867887   20.608082 H          1 MOL1         0.3682
       3    H2      19.007819   19.992686   19.526137 H          1 MOL1         0.3682
       4    H3      18.274502   18.539841   19.775340 H          1 MOL1         0.3682
       5    C1      19.595262   19.074405   21.348123 C.3        1 MOL1         0.0252
       6    H4      20.439185   18.542922   20.900111 H          1 MOL1         0.0971
       7    H5      19.102323   18.407670   22.059280 H          1 MOL1         0.0971
       8    C2      20.101911   20.329055   22.081493 C.3        1 MOL1        -0.1369
       9    H6      20.485900   21.041098   21.338883 H          1 MOL1         0.0997
      10    H7      19.259416   20.825974   22.580550 H          1 MOL1         0.0997
      11    C3      21.222871   20.044082   23.113072 C.3        1 MOL1        -0.1329
      12    H8      21.566373   21.012473   23.502658 H          1 MOL1         0.0997
      13    H9      22.094371   19.599851   22.612576 H          1 MOL1         0.0997
      14    C4      20.793688   19.167990   24.318665 C.3        1 MOL1        -0.1305
      15    H10     21.421438   19.435895   25.180210 H          1 MOL1         0.0997
      16    H11     19.761443   19.403697   24.613034 H          1 MOL1         0.0997
      17    C5      20.948566   17.648151   24.075891 C.3        1 MOL1        -0.2320
      18    H12     20.282647   17.283011   23.287159 H          1 MOL1         0.1008
      19    H13     21.979576   17.397395   23.794565 H          1 MOL1         0.1008
      20    H14     20.709368   17.089506   24.990049 H          1 MOL1         0.1008
@<TRIPOS>BOND
    1     1     2    1
    2     1     3    1
    3     1     4    1
    4     1     5    1
    5     5     6    1
    6     5     7    1
    7     5     8    1
    8     8     9    1
    9     8    10    1
   10     8    11    1
   11    11    12    1
   12    11    13    1
   13    11    14    1
   14    14    15    1
   15    14    16    1
   16    14    17    1
   17    17    18    1
   18    17    19    1
   19    17    20    1
@<TRIPOS>SUBSTRUCTURE
       1 MOL1            1 RESIDUE      1      MOL     
@<SCITEGIC>MOL_PROPERTY
VConf Rank
SciTegic.value.IntegerValue
776

@<SCITEGIC>MOL_PROPERTY
Conf_Id
SciTegic.value.IntegerValue
61

@<SCITEGIC>MOL_PROPERTY
Delta U+W
SciTegic.value.DoubleValue
2.669

@<SCITEGIC>MOL_PROPERTY
U+W
SciTegic.value.DoubleValue
-9.108

@<SCITEGIC>MOL_PROPERTY
Grad RMS
SciTegic.value.DoubleValue
0.000000

@<SCITEGIC>MOL_PROPERTY
U
SciTegic.value.DoubleValue
48.916

@<SCITEGIC>MOL_PROPERTY
W
SciTegic.value.DoubleValue
-58.025

@<SCITEGIC>MOL_PROPERTY
W(PB)
SciTegic.value.DoubleValue
-59.935

@<SCITEGIC>MOL_PROPERTY
W(SA)
SciTegic.value.DoubleValue
1.911

@<SCITEGIC>MOL_PROPERTY
Valence
SciTegic.value.DoubleValue
3.785

@<SCITEGIC>MOL_PROPERTY
Coulomb
SciTegic.value.DoubleValue
44.716

@<SCITEGIC>MOL_PROPERTY
VdW
SciTegic.value.DoubleValue
0.415

@<SCITEGIC>MOL_PROPERTY
VdW6
SciTegic.value.DoubleValue
-4.836

@<SCITEGIC>MOL_PROPERTY
VdW12
SciTegic.value.DoubleValue
5.251

@<SCITEGIC>MOL_PROPERTY
Bond
SciTegic.value.DoubleValue
0.175

@<SCITEGIC>MOL_PROPERTY
Angle
SciTegic.value.DoubleValue
1.195

@<SCITEGIC>MOL_PROPERTY
Pdih
SciTegic.value.DoubleValue
2.415

@<SCITEGIC>MOL_PROPERTY
Idih
SciTegic.value.DoubleValue
0.000

@<SCITEGIC>MOL_PROPERTY
Tether
SciTegic.value.DoubleValue
0.000

@<TRIPOS>MOLECULE
guest-s11_confgen4.mol2 : confsearch ligand conformer 777
          20          19           1
SMALL
USER_CHARGES
 
@<TRIPOS>ATOM
       1    N1      20.294593   21.103399   23.432755 N.4        1 MOL1        -0.5919
       2    H1      20.903805   21.911889   23.596604 H          1 MOL1         0.3682
       3    H2      19.449298   21.250715   23.993179 H          1 MOL1         0.3682
       4    H3      20.772610   20.284196   23.816723 H          1 MOL1         0.3682
       5    C1      19.971009   20.933090   21.960729 C.3        1 MOL1         0.0252
       6    H4      20.908524   20.838332   21.406271 H          1 MOL1         0.0971
       7    H5      19.477568   21.852925   21.635181 H          1 MOL1         0.0971
       8    C2      19.052447   19.733717   21.645733 C.3        1 MOL1        -0.1369
       9    H6      18.243103   19.674800   22.385535 H          1 MOL1         0.0997
      10    H7      18.564818   19.931179   20.681836 H          1 MOL1         0.0997
      11    C3      19.785083   18.371707   21.536459 C.3        1 MOL1        -0.1329
      12    H8      20.552136   18.430529   20.751834 H          1 MOL1         0.0997
      13    H9      19.059148   17.619528   21.197748 H          1 MOL1         0.0997
      14    C4      20.431556   17.883602   22.854085 C.3        1 MOL1        -0.1305
      15    H10     21.263994   18.542461   23.131217 H          1 MOL1         0.0997
      16    H11     19.695544   17.924723   23.669276 H          1 MOL1         0.0997
      17    C5      20.968292   16.442076   22.723944 C.3        1 MOL1        -0.2320
      18    H12     21.432051   16.114567   23.663473 H          1 MOL1         0.1008
      19    H13     20.159769   15.738758   22.485496 H          1 MOL1         0.1008
      20    H14     21.725950   16.372838   21.932471 H          1 MOL1         0.1008
@<TRIPOS>BOND
    1     1     2    1
    2     1     3    1
    3     1     4    1
    4     1     5    1
    5     5     6    1
    6     5     7    1
    7     5     8    1
    8     8     9    1
    9     8    10    1
   10     8    11    1
   11    11    12    1
   12    11    13    1
   13    11    14    1
   14    14    15    1
   15    14    16    1
   16    14    17    1
   17    17    18    1
   18    17    19    1
   19    17    20    1
@<TRIPOS>SUBSTRUCTURE
       1 MOL1            1 RESIDUE      1      MOL     
@<SCITEGIC>MOL_PROPERTY
VConf Rank
SciTegic.value.IntegerValue
777

@<SCITEGIC>MOL_PROPERTY
Conf_Id
SciTegic.value.IntegerValue
69

@<SCITEGIC>MOL_PROPERTY
Delta U+W
SciTegic.value.DoubleValue
2.811

@<SCITEGIC>MOL_PROPERTY
U+W
SciTegic.value.DoubleValue
-8.967

@<SCITEGIC>MOL_PROPERTY
Grad RMS
SciTegic.value.DoubleValue
0.000000

@<SCITEGIC>MOL_PROPERTY
U
SciTegic.value.DoubleValue
49.216

@<SCITEGIC>MOL_PROPERTY
W
SciTegic.value.DoubleValue
-58.183

@<SCITEGIC>MOL_PROPERTY
W(PB)
SciTegic.value.DoubleValue
-60.064

@<SCITEGIC>MOL_PROPERTY
W(SA)
SciTegic.value.DoubleValue
1.881

@<SCITEGIC>MOL_PROPERTY
Valence
SciTegic.value.DoubleValue
2.929

@<SCITEGIC>MOL_PROPERTY
Coulomb
SciTegic.value.DoubleValue
46.006

@<SCITEGIC>MOL_PROPERTY
VdW
SciTegic.value.DoubleValue
0.281

@<SCITEGIC>MOL_PROPERTY
VdW6
SciTegic.value.DoubleValue
-4.909

@<SCITEGIC>MOL_PROPERTY
VdW12
SciTegic.value.DoubleValue
5.190

@<SCITEGIC>MOL_PROPERTY
Bond
SciTegic.value.DoubleValue
0.156

@<SCITEGIC>MOL_PROPERTY
Angle
SciTegic.value.DoubleValue
0.974

@<SCITEGIC>MOL_PROPERTY
Pdih
SciTegic.value.DoubleValue
1.799

@<SCITEGIC>MOL_PROPERTY
Idih
SciTegic.value.DoubleValue
0.000

@<SCITEGIC>MOL_PROPERTY
Tether
SciTegic.value.DoubleValue
0.000

@<TRIPOS>MOLECULE
guest-s11_confgen4.mol2 : confsearch ligand conformer 778
          20          19           1
SMALL
USER_CHARGES
 
@<TRIPOS>ATOM
       1    N1      20.622926   17.554459   20.886044 N.4        1 MOL1        -0.5919
       2    H1      20.243733   18.459678   20.596525 H          1 MOL1         0.3682
       3    H2      21.635641   17.587553   20.732366 H          1 MOL1         0.3682
       4    H3      20.247870   16.850679   20.241320 H          1 MOL1         0.3682
       5    C1      20.283094   17.232385   22.328733 C.3        1 MOL1         0.0252
       6    H4      20.713550   16.250866   22.545262 H          1 MOL1         0.0971
       7    H5      19.196657   17.152635   22.421656 H          1 MOL1         0.0971
       8    C2      20.823065   18.252825   23.352750 C.3        1 MOL1        -0.1369
       9    H6      20.889477   17.746509   24.324914 H          1 MOL1         0.0997
      10    H7      21.850561   18.539737   23.092468 H          1 MOL1         0.0997
      11    C3      19.939246   19.513689   23.534024 C.3        1 MOL1        -0.1329
      12    H8      20.354547   20.105933   24.361219 H          1 MOL1         0.0997
      13    H9      18.931315   19.211776   23.850864 H          1 MOL1         0.0997
      14    C4      19.837880   20.411816   22.278872 C.3        1 MOL1        -0.1305
      15    H10     20.843594   20.629622   21.892812 H          1 MOL1         0.0997
      16    H11     19.288972   19.889003   21.485639 H          1 MOL1         0.0997
      17    C5      19.111406   21.738679   22.586585 C.3        1 MOL1        -0.2320
      18    H12     19.648921   22.316397   23.349830 H          1 MOL1         0.1008
      19    H13     19.039306   22.359722   21.684277 H          1 MOL1         0.1008
      20    H14     18.092312   21.555422   22.951460 H          1 MOL1         0.1008
@<TRIPOS>BOND
    1     1     2    1
    2     1     3    1
    3     1     4    1
    4     1     5    1
    5     5     6    1
    6     5     7    1
    7     5     8    1
    8     8     9    1
    9     8    10    1
   10     8    11    1
   11    11    12    1
   12    11    13    1
   13    11    14    1
   14    14    15    1
   15    14    16    1
   16    14    17    1
   17    17    18    1
   18    17    19    1
   19    17    20    1
@<TRIPOS>SUBSTRUCTURE
       1 MOL1            1 RESIDUE      1      MOL     
@<SCITEGIC>MOL_PROPERTY
VConf Rank
SciTegic.value.IntegerValue
778

@<SCITEGIC>MOL_PROPERTY
Conf_Id
SciTegic.value.IntegerValue
26

@<SCITEGIC>MOL_PROPERTY
Delta U+W
SciTegic.value.DoubleValue
2.809

@<SCITEGIC>MOL_PROPERTY
U+W
SciTegic.value.DoubleValue
-8.969

@<SCITEGIC>MOL_PROPERTY
Grad RMS
SciTegic.value.DoubleValue
0.000000

@<SCITEGIC>MOL_PROPERTY
U
SciTegic.value.DoubleValue
49.216

@<SCITEGIC>MOL_PROPERTY
W
SciTegic.value.DoubleValue
-58.185

@<SCITEGIC>MOL_PROPERTY
W(PB)
SciTegic.value.DoubleValue
-60.088

@<SCITEGIC>MOL_PROPERTY
W(SA)
SciTegic.value.DoubleValue
1.903

@<SCITEGIC>MOL_PROPERTY
Valence
SciTegic.value.DoubleValue
2.929

@<SCITEGIC>MOL_PROPERTY
Coulomb
SciTegic.value.DoubleValue
46.006

@<SCITEGIC>MOL_PROPERTY
VdW
SciTegic.value.DoubleValue
0.281

@<SCITEGIC>MOL_PROPERTY
VdW6
SciTegic.value.DoubleValue
-4.909

@<SCITEGIC>MOL_PROPERTY
VdW12
SciTegic.value.DoubleValue
5.190

@<SCITEGIC>MOL_PROPERTY
Bond
SciTegic.value.DoubleValue
0.156

@<SCITEGIC>MOL_PROPERTY
Angle
SciTegic.value.DoubleValue
0.974

@<SCITEGIC>MOL_PROPERTY
Pdih
SciTegic.value.DoubleValue
1.799

@<SCITEGIC>MOL_PROPERTY
Idih
SciTegic.value.DoubleValue
0.000

@<SCITEGIC>MOL_PROPERTY
Tether
SciTegic.value.DoubleValue
0.000

@<TRIPOS>MOLECULE
guest-s11_confgen4.mol2 : confsearch ligand conformer 779
          20          19           1
SMALL
USER_CHARGES
 
@<TRIPOS>ATOM
       1    N1      19.794777   18.400655   20.194784 N.4        1 MOL1        -0.5919
       2    H1      19.120253   19.153637   20.359015 H          1 MOL1         0.3682
       3    H2      20.453463   18.733893   19.484064 H          1 MOL1         0.3682
       4    H3      19.277546   17.618962   19.779166 H          1 MOL1         0.3682
       5    C1      20.502425   17.992815   21.472243 C.3        1 MOL1         0.0252
       6    H4      21.179780   17.169558   21.229456 H          1 MOL1         0.0971
       7    H5      19.751087   17.618279   22.172347 H          1 MOL1         0.0971
       8    C2      21.301634   19.136042   22.129957 C.3        1 MOL1        -0.1369
       9    H6      21.840086   18.736866   22.999013 H          1 MOL1         0.0997
      10    H7      22.075142   19.481716   21.431506 H          1 MOL1         0.0997
      11    C3      20.431310   20.343952   22.566405 C.3        1 MOL1        -0.1329
      12    H8      20.024617   20.839880   21.674854 H          1 MOL1         0.0997
      13    H9      21.077686   21.088512   23.051200 H          1 MOL1         0.0997
      14    C4      19.262676   19.991845   23.522096 C.3        1 MOL1        -0.1305
      15    H10     18.704321   20.911391   23.746879 H          1 MOL1         0.0997
      16    H11     18.550684   19.321696   23.021631 H          1 MOL1         0.0997
      17    C5      19.728313   19.355038   24.851193 C.3        1 MOL1        -0.2320
      18    H12     20.454674   19.998626   25.364181 H          1 MOL1         0.1008
      19    H13     18.875523   19.207234   25.526314 H          1 MOL1         0.1008
      20    H14     20.192873   18.374797   24.687137 H          1 MOL1         0.1008
@<TRIPOS>BOND
    1     1     2    1
    2     1     3    1
    3     1     4    1
    4     1     5    1
    5     5     6    1
    6     5     7    1
    7     5     8    1
    8     8     9    1
    9     8    10    1
   10     8    11    1
   11    11    12    1
   12    11    13    1
   13    11    14    1
   14    14    15    1
   15    14    16    1
   16    14    17    1
   17    17    18    1
   18    17    19    1
   19    17    20    1
@<TRIPOS>SUBSTRUCTURE
       1 MOL1            1 RESIDUE      1      MOL     
@<SCITEGIC>MOL_PROPERTY
VConf Rank
SciTegic.value.IntegerValue
779

@<SCITEGIC>MOL_PROPERTY
Conf_Id
SciTegic.value.IntegerValue
2

@<SCITEGIC>MOL_PROPERTY
Delta U+W
SciTegic.value.DoubleValue
0.994

@<SCITEGIC>MOL_PROPERTY
U+W
SciTegic.value.DoubleValue
-10.784

@<SCITEGIC>MOL_PROPERTY
Grad RMS
SciTegic.value.DoubleValue
0.000000

@<SCITEGIC>MOL_PROPERTY
U
SciTegic.value.DoubleValue
47.562

@<SCITEGIC>MOL_PROPERTY
W
SciTegic.value.DoubleValue
-58.346

@<SCITEGIC>MOL_PROPERTY
W(PB)
SciTegic.value.DoubleValue
-60.221

@<SCITEGIC>MOL_PROPERTY
W(SA)
SciTegic.value.DoubleValue
1.875

@<SCITEGIC>MOL_PROPERTY
Valence
SciTegic.value.DoubleValue
2.149

@<SCITEGIC>MOL_PROPERTY
Coulomb
SciTegic.value.DoubleValue
45.034

@<SCITEGIC>MOL_PROPERTY
VdW
SciTegic.value.DoubleValue
0.378

@<SCITEGIC>MOL_PROPERTY
VdW6
SciTegic.value.DoubleValue
-5.599

@<SCITEGIC>MOL_PROPERTY
VdW12
SciTegic.value.DoubleValue
5.977

@<SCITEGIC>MOL_PROPERTY
Bond
SciTegic.value.DoubleValue
0.185

@<SCITEGIC>MOL_PROPERTY
Angle
SciTegic.value.DoubleValue
0.935

@<SCITEGIC>MOL_PROPERTY
Pdih
SciTegic.value.DoubleValue
1.028

@<SCITEGIC>MOL_PROPERTY
Idih
SciTegic.value.DoubleValue
0.000

@<SCITEGIC>MOL_PROPERTY
Tether
SciTegic.value.DoubleValue
0.000

@<TRIPOS>MOLECULE
guest-s11_confgen4.mol2 : confsearch ligand conformer 780
          20          19           1
SMALL
USER_CHARGES
 
@<TRIPOS>ATOM
       1    N1      20.342368   16.893427   21.446412 N.4        1 MOL1        -0.5919
       2    H1      19.583111   16.607151   20.820622 H          1 MOL1         0.3682
       3    H2      20.952664   17.520762   20.914501 H          1 MOL1         0.3682
       4    H3      20.887876   16.051520   21.658360 H          1 MOL1         0.3682
       5    C1      19.816336   17.556056   22.704668 C.3        1 MOL1         0.0252
       6    H4      20.670243   17.805482   23.339933 H          1 MOL1         0.0971
       7    H5      19.201898   16.823395   23.234933 H          1 MOL1         0.0971
       8    C2      18.981526   18.824274   22.434477 C.3        1 MOL1        -0.1369
       9    H6      18.108689   18.556603   21.824440 H          1 MOL1         0.0997
      10    H7      18.579271   19.192583   23.386880 H          1 MOL1         0.0997
      11    C3      19.769250   19.959081   21.728291 C.3        1 MOL1        -0.1329
      12    H8      19.106998   20.827594   21.608683 H          1 MOL1         0.0997
      13    H9      20.029005   19.641658   20.709479 H          1 MOL1         0.0997
      14    C4      21.060883   20.406507   22.459406 C.3        1 MOL1        -0.1305
      15    H10     21.779124   19.576716   22.504937 H          1 MOL1         0.0997
      16    H11     21.546067   21.192932   21.864443 H          1 MOL1         0.0997
      17    C5      20.802746   20.948062   23.883809 C.3        1 MOL1        -0.2320
      18    H12     20.422766   20.163726   24.550168 H          1 MOL1         0.1008
      19    H13     21.732162   21.332728   24.323244 H          1 MOL1         0.1008
      20    H14     20.074227   21.769020   23.868039 H          1 MOL1         0.1008
@<TRIPOS>BOND
    1     1     2    1
    2     1     3    1
    3     1     4    1
    4     1     5    1
    5     5     6    1
    6     5     7    1
    7     5     8    1
    8     8     9    1
    9     8    10    1
   10     8    11    1
   11    11    12    1
   12    11    13    1
   13    11    14    1
   14    14    15    1
   15    14    16    1
   16    14    17    1
   17    17    18    1
   18    17    19    1
   19    17    20    1
@<TRIPOS>SUBSTRUCTURE
       1 MOL1            1 RESIDUE      1      MOL     
@<SCITEGIC>MOL_PROPERTY
VConf Rank
SciTegic.value.IntegerValue
780

@<SCITEGIC>MOL_PROPERTY
Conf_Id
SciTegic.value.IntegerValue
1

@<SCITEGIC>MOL_PROPERTY
Delta U+W
SciTegic.value.DoubleValue
1.032

@<SCITEGIC>MOL_PROPERTY
U+W
SciTegic.value.DoubleValue
-10.746

@<SCITEGIC>MOL_PROPERTY
Grad RMS
SciTegic.value.DoubleValue
0.000000

@<SCITEGIC>MOL_PROPERTY
U
SciTegic.value.DoubleValue
47.562

@<SCITEGIC>MOL_PROPERTY
W
SciTegic.value.DoubleValue
-58.308

@<SCITEGIC>MOL_PROPERTY
W(PB)
SciTegic.value.DoubleValue
-60.184

@<SCITEGIC>MOL_PROPERTY
W(SA)
SciTegic.value.DoubleValue
1.877

@<SCITEGIC>MOL_PROPERTY
Valence
SciTegic.value.DoubleValue
2.149

@<SCITEGIC>MOL_PROPERTY
Coulomb
SciTegic.value.DoubleValue
45.035

@<SCITEGIC>MOL_PROPERTY
VdW
SciTegic.value.DoubleValue
0.378

@<SCITEGIC>MOL_PROPERTY
VdW6
SciTegic.value.DoubleValue
-5.599

@<SCITEGIC>MOL_PROPERTY
VdW12
SciTegic.value.DoubleValue
5.978

@<SCITEGIC>MOL_PROPERTY
Bond
SciTegic.value.DoubleValue
0.185

@<SCITEGIC>MOL_PROPERTY
Angle
SciTegic.value.DoubleValue
0.935

@<SCITEGIC>MOL_PROPERTY
Pdih
SciTegic.value.DoubleValue
1.028

@<SCITEGIC>MOL_PROPERTY
Idih
SciTegic.value.DoubleValue
0.000

@<SCITEGIC>MOL_PROPERTY
Tether
SciTegic.value.DoubleValue
0.000

@<TRIPOS>MOLECULE
guest-s11_confgen4.mol2 : confsearch ligand conformer 781
          20          19           1
SMALL
USER_CHARGES
 
@<TRIPOS>ATOM
       1    N1      20.758948   18.187904   20.408700 N.4        1 MOL1        -0.5919
       2    H1      20.372615   17.270031   20.167153 H          1 MOL1         0.3682
       3    H2      20.013136   18.876066   20.271290 H          1 MOL1         0.3682
       4    H3      21.488376   18.395213   19.718553 H          1 MOL1         0.3682
       5    C1      21.299385   18.217805   21.825313 C.3        1 MOL1         0.0252
       6    H4      21.720547   19.208440   22.003595 H          1 MOL1         0.0971
       7    H5      22.114451   17.491121   21.881186 H          1 MOL1         0.0971
       8    C2      20.245985   17.880021   22.901866 C.3        1 MOL1        -0.1369
       9    H6      19.841225   16.883385   22.681175 H          1 MOL1         0.0997
      10    H7      20.739368   17.794051   23.879005 H          1 MOL1         0.0997
      11    C3      19.070085   18.889008   22.999456 C.3        1 MOL1        -0.1329
      12    H8      18.215982   18.367310   23.453068 H          1 MOL1         0.0997
      13    H9      18.731791   19.187621   21.998900 H          1 MOL1         0.0997
      14    C4      19.354052   20.147155   23.859957 C.3        1 MOL1        -0.1305
      15    H10     18.426769   20.733006   23.929745 H          1 MOL1         0.0997
      16    H11     19.599223   19.845569   24.887926 H          1 MOL1         0.0997
      17    C5      20.471871   21.061951   23.312636 C.3        1 MOL1        -0.2320
      18    H12     20.316769   21.289705   22.250171 H          1 MOL1         0.1008
      19    H13     20.488967   22.013217   23.860111 H          1 MOL1         0.1008
      20    H14     21.459743   20.602182   23.434182 H          1 MOL1         0.1008
@<TRIPOS>BOND
    1     1     2    1
    2     1     3    1
    3     1     4    1
    4     1     5    1
    5     5     6    1
    6     5     7    1
    7     5     8    1
    8     8     9    1
    9     8    10    1
   10     8    11    1
   11    11    12    1
   12    11    13    1
   13    11    14    1
   14    14    15    1
   15    14    16    1
   16    14    17    1
   17    17    18    1
   18    17    19    1
   19    17    20    1
@<TRIPOS>SUBSTRUCTURE
       1 MOL1            1 RESIDUE      1      MOL     
@<SCITEGIC>MOL_PROPERTY
VConf Rank
SciTegic.value.IntegerValue
781

@<SCITEGIC>MOL_PROPERTY
Conf_Id
SciTegic.value.IntegerValue
80

@<SCITEGIC>MOL_PROPERTY
Delta U+W
SciTegic.value.DoubleValue
2.920

@<SCITEGIC>MOL_PROPERTY
U+W
SciTegic.value.DoubleValue
-8.857

@<SCITEGIC>MOL_PROPERTY
Grad RMS
SciTegic.value.DoubleValue
0.000000

@<SCITEGIC>MOL_PROPERTY
U
SciTegic.value.DoubleValue
49.434

@<SCITEGIC>MOL_PROPERTY
W
SciTegic.value.DoubleValue
-58.292

@<SCITEGIC>MOL_PROPERTY
W(PB)
SciTegic.value.DoubleValue
-60.170

@<SCITEGIC>MOL_PROPERTY
W(SA)
SciTegic.value.DoubleValue
1.879

@<SCITEGIC>MOL_PROPERTY
Valence
SciTegic.value.DoubleValue
3.798

@<SCITEGIC>MOL_PROPERTY
Coulomb
SciTegic.value.DoubleValue
45.253

@<SCITEGIC>MOL_PROPERTY
VdW
SciTegic.value.DoubleValue
0.384

@<SCITEGIC>MOL_PROPERTY
VdW6
SciTegic.value.DoubleValue
-5.595

@<SCITEGIC>MOL_PROPERTY
VdW12
SciTegic.value.DoubleValue
5.979

@<SCITEGIC>MOL_PROPERTY
Bond
SciTegic.value.DoubleValue
0.198

@<SCITEGIC>MOL_PROPERTY
Angle
SciTegic.value.DoubleValue
1.368

@<SCITEGIC>MOL_PROPERTY
Pdih
SciTegic.value.DoubleValue
2.231

@<SCITEGIC>MOL_PROPERTY
Idih
SciTegic.value.DoubleValue
0.000

@<SCITEGIC>MOL_PROPERTY
Tether
SciTegic.value.DoubleValue
0.000

@<TRIPOS>MOLECULE
guest-s11_confgen4.mol2 : confsearch ligand conformer 782
          20          19           1
SMALL
USER_CHARGES
 
@<TRIPOS>ATOM
       1    N1      20.379045   17.061941   23.405260 N.4        1 MOL1        -0.5919
       2    H1      19.551496   16.637943   23.835932 H          1 MOL1         0.3682
       3    H2      21.074144   16.315923   23.297369 H          1 MOL1         0.3682
       4    H3      20.761474   17.731715   24.078936 H          1 MOL1         0.3682
       5    C1      20.050372   17.721189   22.079695 C.3        1 MOL1         0.0252
       6    H4      19.690337   16.939911   21.404786 H          1 MOL1         0.0971
       7    H5      20.976510   18.122039   21.664840 H          1 MOL1         0.0971
       8    C2      18.983019   18.831500   22.183104 C.3        1 MOL1        -0.1369
       9    H6      18.707163   19.165772   21.174252 H          1 MOL1         0.0997
      10    H7      18.073607   18.390505   22.612422 H          1 MOL1         0.0997
      11    C3      19.400356   20.056116   23.041284 C.3        1 MOL1        -0.1329
      12    H8      19.920854   19.731920   23.951613 H          1 MOL1         0.0997
      13    H9      18.483196   20.550986   23.389631 H          1 MOL1         0.0997
      14    C4      20.247116   21.121136   22.297799 C.3        1 MOL1        -0.1305
      15    H10     19.681202   21.512530   21.440866 H          1 MOL1         0.0997
      16    H11     20.399306   21.973725   22.974465 H          1 MOL1         0.0997
      17    C5      21.628380   20.624018   21.817266 C.3        1 MOL1        -0.2320
      18    H12     21.532052   19.930378   20.973680 H          1 MOL1         0.1008
      19    H13     22.239332   21.468398   21.472754 H          1 MOL1         0.1008
      20    H14     22.175568   20.122603   22.625925 H          1 MOL1         0.1008
@<TRIPOS>BOND
    1     1     2    1
    2     1     3    1
    3     1     4    1
    4     1     5    1
    5     5     6    1
    6     5     7    1
    7     5     8    1
    8     8     9    1
    9     8    10    1
   10     8    11    1
   11    11    12    1
   12    11    13    1
   13    11    14    1
   14    14    15    1
   15    14    16    1
   16    14    17    1
   17    17    18    1
   18    17    19    1
   19    17    20    1
@<TRIPOS>SUBSTRUCTURE
       1 MOL1            1 RESIDUE      1      MOL     
@<SCITEGIC>MOL_PROPERTY
VConf Rank
SciTegic.value.IntegerValue
782

@<SCITEGIC>MOL_PROPERTY
Conf_Id
SciTegic.value.IntegerValue
65

@<SCITEGIC>MOL_PROPERTY
Delta U+W
SciTegic.value.DoubleValue
2.949

@<SCITEGIC>MOL_PROPERTY
U+W
SciTegic.value.DoubleValue
-8.829

@<SCITEGIC>MOL_PROPERTY
Grad RMS
SciTegic.value.DoubleValue
0.000000

@<SCITEGIC>MOL_PROPERTY
U
SciTegic.value.DoubleValue
49.435

@<SCITEGIC>MOL_PROPERTY
W
SciTegic.value.DoubleValue
-58.263

@<SCITEGIC>MOL_PROPERTY
W(PB)
SciTegic.value.DoubleValue
-60.125

@<SCITEGIC>MOL_PROPERTY
W(SA)
SciTegic.value.DoubleValue
1.862

@<SCITEGIC>MOL_PROPERTY
Valence
SciTegic.value.DoubleValue
3.797

@<SCITEGIC>MOL_PROPERTY
Coulomb
SciTegic.value.DoubleValue
45.253

@<SCITEGIC>MOL_PROPERTY
VdW
SciTegic.value.DoubleValue
0.384

@<SCITEGIC>MOL_PROPERTY
VdW6
SciTegic.value.DoubleValue
-5.596

@<SCITEGIC>MOL_PROPERTY
VdW12
SciTegic.value.DoubleValue
5.980

@<SCITEGIC>MOL_PROPERTY
Bond
SciTegic.value.DoubleValue
0.198

@<SCITEGIC>MOL_PROPERTY
Angle
SciTegic.value.DoubleValue
1.369

@<SCITEGIC>MOL_PROPERTY
Pdih
SciTegic.value.DoubleValue
2.230

@<SCITEGIC>MOL_PROPERTY
Idih
SciTegic.value.DoubleValue
0.000

@<SCITEGIC>MOL_PROPERTY
Tether
SciTegic.value.DoubleValue
0.000

@<TRIPOS>MOLECULE
guest-s11_confgen4.mol2 : confsearch ligand conformer 783
          20          19           1
SMALL
USER_CHARGES
 
@<TRIPOS>ATOM
       1    N1      19.753563   19.683119   24.341875 N.4        1 MOL1        -0.5919
       2    H1      18.968568   20.027203   24.904965 H          1 MOL1         0.3682
       3    H2      19.468492   18.787126   23.934866 H          1 MOL1         0.3682
       4    H3      20.524172   19.492290   24.990067 H          1 MOL1         0.3682
       5    C1      20.154636   20.675733   23.267905 C.3        1 MOL1         0.0252
       6    H4      20.445271   21.598159   23.777985 H          1 MOL1         0.0971
       7    H5      19.281438   20.892371   22.646783 H          1 MOL1         0.0971
       8    C2      21.323683   20.201132   22.381060 C.3        1 MOL1        -0.1369
       9    H6      21.798222   21.092459   21.949597 H          1 MOL1         0.0997
      10    H7      22.093165   19.725394   23.003458 H          1 MOL1         0.0997
      11    C3      20.926676   19.262631   21.209966 C.3        1 MOL1        -0.1329
      12    H8      21.839164   19.050612   20.635564 H          1 MOL1         0.0997
      13    H9      20.259686   19.792015   20.515457 H          1 MOL1         0.0997
      14    C4      20.296093   17.908958   21.625243 C.3        1 MOL1        -0.1305
      15    H10     20.630803   17.135799   20.919232 H          1 MOL1         0.0997
      16    H11     20.673353   17.594433   22.607594 H          1 MOL1         0.0997
      17    C5      18.749128   17.928005   21.606450 C.3        1 MOL1        -0.2320
      18    H12     18.331717   18.722840   22.233826 H          1 MOL1         0.1008
      19    H13     18.377546   18.086026   20.585530 H          1 MOL1         0.1008
      20    H14     18.346053   16.969914   21.959683 H          1 MOL1         0.1008
@<TRIPOS>BOND
    1     1     2    1
    2     1     3    1
    3     1     4    1
    4     1     5    1
    5     5     6    1
    6     5     7    1
    7     5     8    1
    8     8     9    1
    9     8    10    1
   10     8    11    1
   11    11    12    1
   12    11    13    1
   13    11    14    1
   14    14    15    1
   15    14    16    1
   16    14    17    1
   17    17    18    1
   18    17    19    1
   19    17    20    1
@<TRIPOS>SUBSTRUCTURE
       1 MOL1            1 RESIDUE      1      MOL     
@<SCITEGIC>MOL_PROPERTY
VConf Rank
SciTegic.value.IntegerValue
783

@<SCITEGIC>MOL_PROPERTY
Conf_Id
SciTegic.value.IntegerValue
77

@<SCITEGIC>MOL_PROPERTY
Delta U+W
SciTegic.value.DoubleValue
5.366

@<SCITEGIC>MOL_PROPERTY
U+W
SciTegic.value.DoubleValue
-6.412

@<SCITEGIC>MOL_PROPERTY
Grad RMS
SciTegic.value.DoubleValue
0.000000

@<SCITEGIC>MOL_PROPERTY
U
SciTegic.value.DoubleValue
51.542

@<SCITEGIC>MOL_PROPERTY
W
SciTegic.value.DoubleValue
-57.954

@<SCITEGIC>MOL_PROPERTY
W(PB)
SciTegic.value.DoubleValue
-59.811

@<SCITEGIC>MOL_PROPERTY
W(SA)
SciTegic.value.DoubleValue
1.857

@<SCITEGIC>MOL_PROPERTY
Valence
SciTegic.value.DoubleValue
5.347

@<SCITEGIC>MOL_PROPERTY
Coulomb
SciTegic.value.DoubleValue
45.870

@<SCITEGIC>MOL_PROPERTY
VdW
SciTegic.value.DoubleValue
0.325

@<SCITEGIC>MOL_PROPERTY
VdW6
SciTegic.value.DoubleValue
-6.161

@<SCITEGIC>MOL_PROPERTY
VdW12
SciTegic.value.DoubleValue
6.486

@<SCITEGIC>MOL_PROPERTY
Bond
SciTegic.value.DoubleValue
0.201

@<SCITEGIC>MOL_PROPERTY
Angle
SciTegic.value.DoubleValue
1.484

@<SCITEGIC>MOL_PROPERTY
Pdih
SciTegic.value.DoubleValue
3.662

@<SCITEGIC>MOL_PROPERTY
Idih
SciTegic.value.DoubleValue
0.000

@<SCITEGIC>MOL_PROPERTY
Tether
SciTegic.value.DoubleValue
0.000

@<TRIPOS>MOLECULE
guest-s11_confgen4.mol2 : confsearch ligand conformer 784
          20          19           1
SMALL
USER_CHARGES
 
@<TRIPOS>ATOM
       1    N1      18.722968   18.596253   21.227041 N.4        1 MOL1        -0.5919
       2    H1      18.034637   19.343454   21.091775 H          1 MOL1         0.3682
       3    H2      19.623939   18.946526   20.887503 H          1 MOL1         0.3682
       4    H3      18.445678   17.821120   20.615518 H          1 MOL1         0.3682
       5    C1      18.808358   18.166189   22.678701 C.3        1 MOL1         0.0252
       6    H4      19.504937   17.327098   22.755549 H          1 MOL1         0.0971
       7    H5      17.815170   17.809798   22.965204 H          1 MOL1         0.0971
       8    C2      19.236241   19.292228   23.641697 C.3        1 MOL1        -0.1369
       9    H6      18.721671   20.224940   23.375101 H          1 MOL1         0.0997
      10    H7      18.875055   19.028574   24.644614 H          1 MOL1         0.0997
      11    C3      20.766654   19.533837   23.738266 C.3        1 MOL1        -0.1329
      12    H8      21.262977   18.637372   24.135102 H          1 MOL1         0.0997
      13    H9      20.928357   20.316386   24.492584 H          1 MOL1         0.0997
      14    C4      21.454299   19.984866   22.424403 C.3        1 MOL1        -0.1305
      15    H10     20.749376   20.542836   21.793518 H          1 MOL1         0.0997
      16    H11     22.253752   20.696657   22.674381 H          1 MOL1         0.0997
      17    C5      22.092558   18.814133   21.639654 C.3        1 MOL1        -0.2320
      18    H12     22.518096   19.169828   20.692247 H          1 MOL1         0.1008
      19    H13     22.908186   18.361013   22.218234 H          1 MOL1         0.1008
      20    H14     21.372965   18.020762   21.410869 H          1 MOL1         0.1008
@<TRIPOS>BOND
    1     1     2    1
    2     1     3    1
    3     1     4    1
    4     1     5    1
    5     5     6    1
    6     5     7    1
    7     5     8    1
    8     8     9    1
    9     8    10    1
   10     8    11    1
   11    11    12    1
   12    11    13    1
   13    11    14    1
   14    14    15    1
   15    14    16    1
   16    14    17    1
   17    17    18    1
   18    17    19    1
   19    17    20    1
@<TRIPOS>SUBSTRUCTURE
       1 MOL1            1 RESIDUE      1      MOL     
@<SCITEGIC>MOL_PROPERTY
VConf Rank
SciTegic.value.IntegerValue
784

@<SCITEGIC>MOL_PROPERTY
Conf_Id
SciTegic.value.IntegerValue
67

@<SCITEGIC>MOL_PROPERTY
Delta U+W
SciTegic.value.DoubleValue
5.353

@<SCITEGIC>MOL_PROPERTY
U+W
SciTegic.value.DoubleValue
-6.425

@<SCITEGIC>MOL_PROPERTY
Grad RMS
SciTegic.value.DoubleValue
0.000000

@<SCITEGIC>MOL_PROPERTY
U
SciTegic.value.DoubleValue
51.541

@<SCITEGIC>MOL_PROPERTY
W
SciTegic.value.DoubleValue
-57.966

@<SCITEGIC>MOL_PROPERTY
W(PB)
SciTegic.value.DoubleValue
-59.821

@<SCITEGIC>MOL_PROPERTY
W(SA)
SciTegic.value.DoubleValue
1.855

@<SCITEGIC>MOL_PROPERTY
Valence
SciTegic.value.DoubleValue
5.347

@<SCITEGIC>MOL_PROPERTY
Coulomb
SciTegic.value.DoubleValue
45.870

@<SCITEGIC>MOL_PROPERTY
VdW
SciTegic.value.DoubleValue
0.325

@<SCITEGIC>MOL_PROPERTY
VdW6
SciTegic.value.DoubleValue
-6.161

@<SCITEGIC>MOL_PROPERTY
VdW12
SciTegic.value.DoubleValue
6.486

@<SCITEGIC>MOL_PROPERTY
Bond
SciTegic.value.DoubleValue
0.201

@<SCITEGIC>MOL_PROPERTY
Angle
SciTegic.value.DoubleValue
1.485

@<SCITEGIC>MOL_PROPERTY
Pdih
SciTegic.value.DoubleValue
3.662

@<SCITEGIC>MOL_PROPERTY
Idih
SciTegic.value.DoubleValue
0.000

@<SCITEGIC>MOL_PROPERTY
Tether
SciTegic.value.DoubleValue
0.000

@<TRIPOS>MOLECULE
guest-s11_confgen4.mol2 : confsearch ligand conformer 785
          20          19           1
SMALL
USER_CHARGES
 
@<TRIPOS>ATOM
       1    N1      17.870016   17.900196   20.559778 N.4        1 MOL1        -0.5919
       2    H1      18.438596   17.180507   20.102447 H          1 MOL1         0.3682
       3    H2      16.927687   17.510340   20.667615 H          1 MOL1         0.3682
       4    H3      17.793607   18.684890   19.904945 H          1 MOL1         0.3682
       5    C1      18.458376   18.327020   21.889493 C.3        1 MOL1         0.0252
       6    H4      18.481886   17.451947   22.544635 H          1 MOL1         0.0971
       7    H5      17.788644   19.069287   22.332229 H          1 MOL1         0.0971
       8    C2      19.874293   18.917296   21.762928 C.3        1 MOL1        -0.1369
       9    H6      20.539670   18.174282   21.303286 H          1 MOL1         0.0997
      10    H7      19.848832   19.786058   21.091608 H          1 MOL1         0.0997
      11    C3      20.436722   19.339032   23.138626 C.3        1 MOL1        -0.1329
      12    H8      20.455870   18.468642   23.809331 H          1 MOL1         0.0997
      13    H9      19.765910   20.078552   23.597879 H          1 MOL1         0.0997
      14    C4      21.858433   19.933246   23.023802 C.3        1 MOL1        -0.1305
      15    H10     22.533286   19.195887   22.566721 H          1 MOL1         0.0997
      16    H11     21.843420   20.805622   22.355385 H          1 MOL1         0.0997
      17    C5      22.416273   20.353061   24.400591 C.3        1 MOL1        -0.2320
      18    H12     22.475863   19.493870   25.081366 H          1 MOL1         0.1008
      19    H13     23.425711   20.772182   24.298530 H          1 MOL1         0.1008
      20    H14     21.780698   21.116269   24.868324 H          1 MOL1         0.1008
@<TRIPOS>BOND
    1     1     2    1
    2     1     3    1
    3     1     4    1
    4     1     5    1
    5     5     6    1
    6     5     7    1
    7     5     8    1
    8     8     9    1
    9     8    10    1
   10     8    11    1
   11    11    12    1
   12    11    13    1
   13    11    14    1
   14    14    15    1
   15    14    16    1
   16    14    17    1
   17    17    18    1
   18    17    19    1
   19    17    20    1
@<TRIPOS>SUBSTRUCTURE
       1 MOL1            1 RESIDUE      1      MOL     
@<SCITEGIC>MOL_PROPERTY
VConf Rank
SciTegic.value.IntegerValue
785

@<SCITEGIC>MOL_PROPERTY
Conf_Id
SciTegic.value.IntegerValue
72

@<SCITEGIC>MOL_PROPERTY
Delta U+W
SciTegic.value.DoubleValue
0.000

@<SCITEGIC>MOL_PROPERTY
U+W
SciTegic.value.DoubleValue
-11.778

@<SCITEGIC>MOL_PROPERTY
Grad RMS
SciTegic.value.DoubleValue
0.000000

@<SCITEGIC>MOL_PROPERTY
U
SciTegic.value.DoubleValue
45.772

@<SCITEGIC>MOL_PROPERTY
W
SciTegic.value.DoubleValue
-57.550

@<SCITEGIC>MOL_PROPERTY
W(PB)
SciTegic.value.DoubleValue
-59.511

@<SCITEGIC>MOL_PROPERTY
W(SA)
SciTegic.value.DoubleValue
1.961

@<SCITEGIC>MOL_PROPERTY
Valence
SciTegic.value.DoubleValue
1.299

@<SCITEGIC>MOL_PROPERTY
Coulomb
SciTegic.value.DoubleValue
44.177

@<SCITEGIC>MOL_PROPERTY
VdW
SciTegic.value.DoubleValue
0.297

@<SCITEGIC>MOL_PROPERTY
VdW6
SciTegic.value.DoubleValue
-3.490

@<SCITEGIC>MOL_PROPERTY
VdW12
SciTegic.value.DoubleValue
3.786

@<SCITEGIC>MOL_PROPERTY
Bond
SciTegic.value.DoubleValue
0.096

@<SCITEGIC>MOL_PROPERTY
Angle
SciTegic.value.DoubleValue
0.381

@<SCITEGIC>MOL_PROPERTY
Pdih
SciTegic.value.DoubleValue
0.822

@<SCITEGIC>MOL_PROPERTY
Idih
SciTegic.value.DoubleValue
0.000

@<SCITEGIC>MOL_PROPERTY
Tether
SciTegic.value.DoubleValue
0.000

@<TRIPOS>MOLECULE
guest-s11_confgen4.mol2 : confsearch ligand conformer 786
          20          19           1
SMALL
USER_CHARGES
 
@<TRIPOS>ATOM
       1    N1      20.649137   17.314117   20.191471 N.4        1 MOL1        -0.5919
       2    H1      19.991964   17.820889   19.590104 H          1 MOL1         0.3682
       3    H2      21.589153   17.652492   19.962920 H          1 MOL1         0.3682
       4    H3      20.611171   16.328980   19.909253 H          1 MOL1         0.3682
       5    C1      20.324922   17.491592   21.661152 C.3        1 MOL1         0.0252
       6    H4      21.042742   16.902588   22.238477 H          1 MOL1         0.0971
       7    H5      19.325748   17.084320   21.838031 H          1 MOL1         0.0971
       8    C2      20.373575   18.960481   22.118607 C.3        1 MOL1        -0.1369
       9    H6      21.373764   19.370067   21.924519 H          1 MOL1         0.0997
      10    H7      19.662751   19.544943   21.520944 H          1 MOL1         0.0997
      11    C3      20.039077   19.093944   23.623077 C.3        1 MOL1        -0.1329
      12    H8      20.711967   18.442717   24.198284 H          1 MOL1         0.0997
      13    H9      19.020352   18.726618   23.809778 H          1 MOL1         0.0997
      14    C4      20.174636   20.539496   24.160358 C.3        1 MOL1        -0.1305
      15    H10     20.023460   20.526732   25.248900 H          1 MOL1         0.0997
      16    H11     21.199130   20.902359   23.997207 H          1 MOL1         0.0997
      17    C5      19.166743   21.527097   23.529228 C.3        1 MOL1        -0.2320
      18    H12     18.135283   21.172804   23.654061 H          1 MOL1         0.1008
      19    H13     19.243004   22.511968   24.007940 H          1 MOL1         0.1008
      20    H14     19.355450   21.666693   22.457628 H          1 MOL1         0.1008
@<TRIPOS>BOND
    1     1     2    1
    2     1     3    1
    3     1     4    1
    4     1     5    1
    5     5     6    1
    6     5     7    1
    7     5     8    1
    8     8     9    1
    9     8    10    1
   10     8    11    1
   11    11    12    1
   12    11    13    1
   13    11    14    1
   14    14    15    1
   15    14    16    1
   16    14    17    1
   17    17    18    1
   18    17    19    1
   19    17    20    1
@<TRIPOS>SUBSTRUCTURE
       1 MOL1            1 RESIDUE      1      MOL     
@<SCITEGIC>MOL_PROPERTY
VConf Rank
SciTegic.value.IntegerValue
786

@<SCITEGIC>MOL_PROPERTY
Conf_Id
SciTegic.value.IntegerValue
42

@<SCITEGIC>MOL_PROPERTY
Delta U+W
SciTegic.value.DoubleValue
0.508

@<SCITEGIC>MOL_PROPERTY
U+W
SciTegic.value.DoubleValue
-11.270

@<SCITEGIC>MOL_PROPERTY
Grad RMS
SciTegic.value.DoubleValue
0.000000

@<SCITEGIC>MOL_PROPERTY
U
SciTegic.value.DoubleValue
46.486

@<SCITEGIC>MOL_PROPERTY
W
SciTegic.value.DoubleValue
-57.756

@<SCITEGIC>MOL_PROPERTY
W(PB)
SciTegic.value.DoubleValue
-59.705

@<SCITEGIC>MOL_PROPERTY
W(SA)
SciTegic.value.DoubleValue
1.949

@<SCITEGIC>MOL_PROPERTY
Valence
SciTegic.value.DoubleValue
1.806

@<SCITEGIC>MOL_PROPERTY
Coulomb
SciTegic.value.DoubleValue
44.248

@<SCITEGIC>MOL_PROPERTY
VdW
SciTegic.value.DoubleValue
0.433

@<SCITEGIC>MOL_PROPERTY
VdW6
SciTegic.value.DoubleValue
-4.089

@<SCITEGIC>MOL_PROPERTY
VdW12
SciTegic.value.DoubleValue
4.522

@<SCITEGIC>MOL_PROPERTY
Bond
SciTegic.value.DoubleValue
0.131

@<SCITEGIC>MOL_PROPERTY
Angle
SciTegic.value.DoubleValue
0.628

@<SCITEGIC>MOL_PROPERTY
Pdih
SciTegic.value.DoubleValue
1.047

@<SCITEGIC>MOL_PROPERTY
Idih
SciTegic.value.DoubleValue
0.000

@<SCITEGIC>MOL_PROPERTY
Tether
SciTegic.value.DoubleValue
0.000

@<TRIPOS>MOLECULE
guest-s11_confgen4.mol2 : confsearch ligand conformer 787
          20          19           1
SMALL
USER_CHARGES
 
@<TRIPOS>ATOM
       1    N1      19.541570   19.995858   25.268712 N.4        1 MOL1        -0.5919
       2    H1      18.542340   19.768047   25.271077 H          1 MOL1         0.3682
       3    H2      20.034454   19.193785   25.673777 H          1 MOL1         0.3682
       4    H3      19.668907   20.780820   25.916170 H          1 MOL1         0.3682
       5    C1      20.044015   20.326258   23.877681 C.3        1 MOL1         0.0252
       6    H4      21.103072   20.587070   23.954371 H          1 MOL1         0.0971
       7    H5      19.499076   21.204924   23.522038 H          1 MOL1         0.0971
       8    C2      19.867145   19.168127   22.879323 C.3        1 MOL1        -0.1369
       9    H6      20.402895   18.287217   23.254872 H          1 MOL1         0.0997
      10    H7      18.804347   18.898989   22.817381 H          1 MOL1         0.0997
      11    C3      20.390481   19.549744   21.474466 C.3        1 MOL1        -0.1329
      12    H8      21.464824   19.774460   21.528114 H          1 MOL1         0.0997
      13    H9      19.897513   20.476319   21.148606 H          1 MOL1         0.0997
      14    C4      20.142834   18.457942   20.405211 C.3        1 MOL1        -0.1305
      15    H10     19.066755   18.247071   20.331284 H          1 MOL1         0.0997
      16    H11     20.446739   18.849640   19.424317 H          1 MOL1         0.0997
      17    C5      20.912265   17.145121   20.677259 C.3        1 MOL1        -0.2320
      18    H12     20.557158   16.650820   21.589941 H          1 MOL1         0.1008
      19    H13     20.775331   16.440549   19.846729 H          1 MOL1         0.1008
      20    H14     21.988620   17.332654   20.783590 H          1 MOL1         0.1008
@<TRIPOS>BOND
    1     1     2    1
    2     1     3    1
    3     1     4    1
    4     1     5    1
    5     5     6    1
    6     5     7    1
    7     5     8    1
    8     8     9    1
    9     8    10    1
   10     8    11    1
   11    11    12    1
   12    11    13    1
   13    11    14    1
   14    14    15    1
   15    14    16    1
   16    14    17    1
   17    17    18    1
   18    17    19    1
   19    17    20    1
@<TRIPOS>SUBSTRUCTURE
       1 MOL1            1 RESIDUE      1      MOL     
@<SCITEGIC>MOL_PROPERTY
VConf Rank
SciTegic.value.IntegerValue
787

@<SCITEGIC>MOL_PROPERTY
Conf_Id
SciTegic.value.IntegerValue
41

@<SCITEGIC>MOL_PROPERTY
Delta U+W
SciTegic.value.DoubleValue
0.515

@<SCITEGIC>MOL_PROPERTY
U+W
SciTegic.value.DoubleValue
-11.263

@<SCITEGIC>MOL_PROPERTY
Grad RMS
SciTegic.value.DoubleValue
0.000000

@<SCITEGIC>MOL_PROPERTY
U
SciTegic.value.DoubleValue
46.486

@<SCITEGIC>MOL_PROPERTY
W
SciTegic.value.DoubleValue
-57.749

@<SCITEGIC>MOL_PROPERTY
W(PB)
SciTegic.value.DoubleValue
-59.685

@<SCITEGIC>MOL_PROPERTY
W(SA)
SciTegic.value.DoubleValue
1.936

@<SCITEGIC>MOL_PROPERTY
Valence
SciTegic.value.DoubleValue
1.806

@<SCITEGIC>MOL_PROPERTY
Coulomb
SciTegic.value.DoubleValue
44.248

@<SCITEGIC>MOL_PROPERTY
VdW
SciTegic.value.DoubleValue
0.433

@<SCITEGIC>MOL_PROPERTY
VdW6
SciTegic.value.DoubleValue
-4.089

@<SCITEGIC>MOL_PROPERTY
VdW12
SciTegic.value.DoubleValue
4.522

@<SCITEGIC>MOL_PROPERTY
Bond
SciTegic.value.DoubleValue
0.131

@<SCITEGIC>MOL_PROPERTY
Angle
SciTegic.value.DoubleValue
0.628

@<SCITEGIC>MOL_PROPERTY
Pdih
SciTegic.value.DoubleValue
1.047

@<SCITEGIC>MOL_PROPERTY
Idih
SciTegic.value.DoubleValue
0.000

@<SCITEGIC>MOL_PROPERTY
Tether
SciTegic.value.DoubleValue
0.000

@<TRIPOS>MOLECULE
guest-s11_confgen4.mol2 : confsearch ligand conformer 788
          20          19           1
SMALL
USER_CHARGES
 
@<TRIPOS>ATOM
       1    N1      20.597894   16.407747   22.693520 N.4        1 MOL1        -0.5919
       2    H1      20.957418   15.592440   23.200983 H          1 MOL1         0.3682
       3    H2      19.604118   16.489821   22.927212 H          1 MOL1         0.3682
       4    H3      20.656911   16.186450   21.694651 H          1 MOL1         0.3682
       5    C1      21.365898   17.669083   23.039013 C.3        1 MOL1         0.0252
       6    H4      22.418574   17.489807   22.803785 H          1 MOL1         0.0971
       7    H5      21.281972   17.833907   24.116617 H          1 MOL1         0.0971
       8    C2      20.881564   18.922195   22.283367 C.3        1 MOL1        -0.1369
       9    H6      21.571461   19.743655   22.513266 H          1 MOL1         0.0997
      10    H7      20.950603   18.747229   21.201558 H          1 MOL1         0.0997
      11    C3      19.436139   19.329891   22.665001 C.3        1 MOL1        -0.1329
      12    H8      19.380020   19.525408   23.744859 H          1 MOL1         0.0997
      13    H9      18.755519   18.491313   22.467137 H          1 MOL1         0.0997
      14    C4      18.918740   20.565409   21.888615 C.3        1 MOL1        -0.1305
      15    H10     18.960035   20.369678   20.807944 H          1 MOL1         0.0997
      16    H11     17.857672   20.715497   22.132645 H          1 MOL1         0.0997
      17    C5      19.691133   21.864909   22.211837 C.3        1 MOL1        -0.2320
      18    H12     20.732447   21.811601   21.871113 H          1 MOL1         0.1008
      19    H13     19.224901   22.723194   21.710915 H          1 MOL1         0.1008
      20    H14     19.691512   22.066515   23.290891 H          1 MOL1         0.1008
@<TRIPOS>BOND
    1     1     2    1
    2     1     3    1
    3     1     4    1
    4     1     5    1
    5     5     6    1
    6     5     7    1
    7     5     8    1
    8     8     9    1
    9     8    10    1
   10     8    11    1
   11    11    12    1
   12    11    13    1
   13    11    14    1
   14    14    15    1
   15    14    16    1
   16    14    17    1
   17    17    18    1
   18    17    19    1
   19    17    20    1
@<TRIPOS>SUBSTRUCTURE
       1 MOL1            1 RESIDUE      1      MOL     
@<SCITEGIC>MOL_PROPERTY
VConf Rank
SciTegic.value.IntegerValue
788

@<SCITEGIC>MOL_PROPERTY
Conf_Id
SciTegic.value.IntegerValue
33

@<SCITEGIC>MOL_PROPERTY
Delta U+W
SciTegic.value.DoubleValue
0.703

@<SCITEGIC>MOL_PROPERTY
U+W
SciTegic.value.DoubleValue
-11.075

@<SCITEGIC>MOL_PROPERTY
Grad RMS
SciTegic.value.DoubleValue
0.000000

@<SCITEGIC>MOL_PROPERTY
U
SciTegic.value.DoubleValue
47.080

@<SCITEGIC>MOL_PROPERTY
W
SciTegic.value.DoubleValue
-58.154

@<SCITEGIC>MOL_PROPERTY
W(PB)
SciTegic.value.DoubleValue
-60.053

@<SCITEGIC>MOL_PROPERTY
W(SA)
SciTegic.value.DoubleValue
1.899

@<SCITEGIC>MOL_PROPERTY
Valence
SciTegic.value.DoubleValue
1.943

@<SCITEGIC>MOL_PROPERTY
Coulomb
SciTegic.value.DoubleValue
44.572

@<SCITEGIC>MOL_PROPERTY
VdW
SciTegic.value.DoubleValue
0.565

@<SCITEGIC>MOL_PROPERTY
VdW6
SciTegic.value.DoubleValue
-4.575

@<SCITEGIC>MOL_PROPERTY
VdW12
SciTegic.value.DoubleValue
5.139

@<SCITEGIC>MOL_PROPERTY
Bond
SciTegic.value.DoubleValue
0.158

@<SCITEGIC>MOL_PROPERTY
Angle
SciTegic.value.DoubleValue
0.700

@<SCITEGIC>MOL_PROPERTY
Pdih
SciTegic.value.DoubleValue
1.085

@<SCITEGIC>MOL_PROPERTY
Idih
SciTegic.value.DoubleValue
0.000

@<SCITEGIC>MOL_PROPERTY
Tether
SciTegic.value.DoubleValue
0.000

@<TRIPOS>MOLECULE
guest-s11_confgen4.mol2 : confsearch ligand conformer 789
          20          19           1
SMALL
USER_CHARGES
 
@<TRIPOS>ATOM
       1    N1      21.103599   19.788091   24.973112 N.4        1 MOL1        -0.5919
       2    H1      21.445851   20.471297   25.656920 H          1 MOL1         0.3682
       3    H2      20.647743   19.038944   25.503364 H          1 MOL1         0.3682
       4    H3      21.927313   19.380840   24.520805 H          1 MOL1         0.3682
       5    C1      20.161893   20.422012   23.967380 C.3        1 MOL1         0.0252
       6    H4      20.700730   21.223933   23.455502 H          1 MOL1         0.0971
       7    H5      19.335527   20.870475   24.525592 H          1 MOL1         0.0971
       8    C2      19.597343   19.431848   22.929728 C.3        1 MOL1        -0.1369
       9    H6      19.071810   18.618538   23.447447 H          1 MOL1         0.0997
      10    H7      18.845210   19.960970   22.331453 H          1 MOL1         0.0997
      11    C3      20.692044   18.850542   21.999766 C.3        1 MOL1        -0.1329
      12    H8      21.460830   18.353767   22.606226 H          1 MOL1         0.0997
      13    H9      21.198222   19.668354   21.468320 H          1 MOL1         0.0997
      14    C4      20.149162   17.825751   20.974067 C.3        1 MOL1        -0.1305
      15    H10     20.998867   17.381588   20.436795 H          1 MOL1         0.0997
      16    H11     19.653679   16.998535   21.501397 H          1 MOL1         0.0997
      17    C5      19.176631   18.441753   19.942326 C.3        1 MOL1        -0.2320
      18    H12     19.637675   19.291957   19.423100 H          1 MOL1         0.1008
      19    H13     18.898678   17.697459   19.184885 H          1 MOL1         0.1008
      20    H14     18.250648   18.789083   20.416867 H          1 MOL1         0.1008
@<TRIPOS>BOND
    1     1     2    1
    2     1     3    1
    3     1     4    1
    4     1     5    1
    5     5     6    1
    6     5     7    1
    7     5     8    1
    8     8     9    1
    9     8    10    1
   10     8    11    1
   11    11    12    1
   12    11    13    1
   13    11    14    1
   14    14    15    1
   15    14    16    1
   16    14    17    1
   17    17    18    1
   18    17    19    1
   19    17    20    1
@<TRIPOS>SUBSTRUCTURE
       1 MOL1            1 RESIDUE      1      MOL     
@<SCITEGIC>MOL_PROPERTY
VConf Rank
SciTegic.value.IntegerValue
789

@<SCITEGIC>MOL_PROPERTY
Conf_Id
SciTegic.value.IntegerValue
24

@<SCITEGIC>MOL_PROPERTY
Delta U+W
SciTegic.value.DoubleValue
0.847

@<SCITEGIC>MOL_PROPERTY
U+W
SciTegic.value.DoubleValue
-10.931

@<SCITEGIC>MOL_PROPERTY
Grad RMS
SciTegic.value.DoubleValue
0.000000

@<SCITEGIC>MOL_PROPERTY
U
SciTegic.value.DoubleValue
47.080

@<SCITEGIC>MOL_PROPERTY
W
SciTegic.value.DoubleValue
-58.011

@<SCITEGIC>MOL_PROPERTY
W(PB)
SciTegic.value.DoubleValue
-59.914

@<SCITEGIC>MOL_PROPERTY
W(SA)
SciTegic.value.DoubleValue
1.903

@<SCITEGIC>MOL_PROPERTY
Valence
SciTegic.value.DoubleValue
1.943

@<SCITEGIC>MOL_PROPERTY
Coulomb
SciTegic.value.DoubleValue
44.572

@<SCITEGIC>MOL_PROPERTY
VdW
SciTegic.value.DoubleValue
0.565

@<SCITEGIC>MOL_PROPERTY
VdW6
SciTegic.value.DoubleValue
-4.575

@<SCITEGIC>MOL_PROPERTY
VdW12
SciTegic.value.DoubleValue
5.140

@<SCITEGIC>MOL_PROPERTY
Bond
SciTegic.value.DoubleValue
0.158

@<SCITEGIC>MOL_PROPERTY
Angle
SciTegic.value.DoubleValue
0.700

@<SCITEGIC>MOL_PROPERTY
Pdih
SciTegic.value.DoubleValue
1.085

@<SCITEGIC>MOL_PROPERTY
Idih
SciTegic.value.DoubleValue
0.000

@<SCITEGIC>MOL_PROPERTY
Tether
SciTegic.value.DoubleValue
0.000

@<TRIPOS>MOLECULE
guest-s11_confgen4.mol2 : confsearch ligand conformer 790
          20          19           1
SMALL
USER_CHARGES
 
@<TRIPOS>ATOM
       1    N1      18.378228   17.114018   22.221713 N.4        1 MOL1        -0.5919
       2    H1      18.291672   16.477641   21.422325 H          1 MOL1         0.3682
       3    H2      18.846461   16.591307   22.968541 H          1 MOL1         0.3682
       4    H3      17.426892   17.315068   22.545518 H          1 MOL1         0.3682
       5    C1      19.130896   18.377588   21.856735 C.3        1 MOL1         0.0252
       6    H4      18.594262   18.866542   21.039222 H          1 MOL1         0.0971
       7    H5      20.119859   18.086230   21.493353 H          1 MOL1         0.0971
       8    C2      19.279270   19.356025   23.037105 C.3        1 MOL1        -0.1369
       9    H6      18.282126   19.609506   23.420786 H          1 MOL1         0.0997
      10    H7      19.809829   18.863231   23.861797 H          1 MOL1         0.0997
      11    C3      20.010132   20.663985   22.643305 C.3        1 MOL1        -0.1329
      12    H8      20.070309   21.317583   23.524469 H          1 MOL1         0.0997
      13    H9      19.400136   21.205410   21.906924 H          1 MOL1         0.0997
      14    C4      21.433336   20.464668   22.061939 C.3        1 MOL1        -0.1305
      15    H10     21.383260   19.901330   21.120174 H          1 MOL1         0.0997
      16    H11     21.846480   21.449353   21.801959 H          1 MOL1         0.0997
      17    C5      22.402802   19.760191   23.038082 C.3        1 MOL1        -0.2320
      18    H12     23.415958   19.727436   22.616958 H          1 MOL1         0.1008
      19    H13     22.454882   20.293165   23.996311 H          1 MOL1         0.1008
      20    H14     22.094492   18.726011   23.235698 H          1 MOL1         0.1008
@<TRIPOS>BOND
    1     1     2    1
    2     1     3    1
    3     1     4    1
    4     1     5    1
    5     5     6    1
    6     5     7    1
    7     5     8    1
    8     8     9    1
    9     8    10    1
   10     8    11    1
   11    11    12    1
   12    11    13    1
   13    11    14    1
   14    14    15    1
   15    14    16    1
   16    14    17    1
   17    17    18    1
   18    17    19    1
   19    17    20    1
@<TRIPOS>SUBSTRUCTURE
       1 MOL1            1 RESIDUE      1      MOL     
@<SCITEGIC>MOL_PROPERTY
VConf Rank
SciTegic.value.IntegerValue
790

@<SCITEGIC>MOL_PROPERTY
Conf_Id
SciTegic.value.IntegerValue
64

@<SCITEGIC>MOL_PROPERTY
Delta U+W
SciTegic.value.DoubleValue
0.707

@<SCITEGIC>MOL_PROPERTY
U+W
SciTegic.value.DoubleValue
-11.070

@<SCITEGIC>MOL_PROPERTY
Grad RMS
SciTegic.value.DoubleValue
0.000000

@<SCITEGIC>MOL_PROPERTY
U
SciTegic.value.DoubleValue
47.077

@<SCITEGIC>MOL_PROPERTY
W
SciTegic.value.DoubleValue
-58.148

@<SCITEGIC>MOL_PROPERTY
W(PB)
SciTegic.value.DoubleValue
-60.054

@<SCITEGIC>MOL_PROPERTY
W(SA)
SciTegic.value.DoubleValue
1.906

@<SCITEGIC>MOL_PROPERTY
Valence
SciTegic.value.DoubleValue
2.039

@<SCITEGIC>MOL_PROPERTY
Coulomb
SciTegic.value.DoubleValue
44.655

@<SCITEGIC>MOL_PROPERTY
VdW
SciTegic.value.DoubleValue
0.383

@<SCITEGIC>MOL_PROPERTY
VdW6
SciTegic.value.DoubleValue
-4.912

@<SCITEGIC>MOL_PROPERTY
VdW12
SciTegic.value.DoubleValue
5.295

@<SCITEGIC>MOL_PROPERTY
Bond
SciTegic.value.DoubleValue
0.159

@<SCITEGIC>MOL_PROPERTY
Angle
SciTegic.value.DoubleValue
0.856

@<SCITEGIC>MOL_PROPERTY
Pdih
SciTegic.value.DoubleValue
1.024

@<SCITEGIC>MOL_PROPERTY
Idih
SciTegic.value.DoubleValue
0.000

@<SCITEGIC>MOL_PROPERTY
Tether
SciTegic.value.DoubleValue
0.000

@<TRIPOS>MOLECULE
guest-s11_confgen4.mol2 : confsearch ligand conformer 791
          20          19           1
SMALL
USER_CHARGES
 
@<TRIPOS>ATOM
       1    N1      18.110436   17.521726   23.381730 N.4        1 MOL1        -0.5919
       2    H1      17.403627   17.314753   22.669065 H          1 MOL1         0.3682
       3    H2      18.714896   16.697402   23.454813 H          1 MOL1         0.3682
       4    H3      17.614976   17.607517   24.275401 H          1 MOL1         0.3682
       5    C1      18.897440   18.773916   23.051623 C.3        1 MOL1         0.0252
       6    H4      19.606823   18.948786   23.864754 H          1 MOL1         0.0971
       7    H5      18.198211   19.613772   23.018481 H          1 MOL1         0.0971
       8    C2      19.654908   18.677609   21.713868 C.3        1 MOL1        -0.1369
       9    H6      20.350517   17.829228   21.742740 H          1 MOL1         0.0997
      10    H7      18.938470   18.460701   20.910483 H          1 MOL1         0.0997
      11    C3      20.419820   19.978320   21.363072 C.3        1 MOL1        -0.1329
      12    H8      19.693930   20.789883   21.214945 H          1 MOL1         0.0997
      13    H9      20.924861   19.844887   20.396432 H          1 MOL1         0.0997
      14    C4      21.460415   20.426962   22.420950 C.3        1 MOL1        -0.1305
      15    H10     21.925239   21.362699   22.080044 H          1 MOL1         0.0997
      16    H11     20.959063   20.667866   23.368255 H          1 MOL1         0.0997
      17    C5      22.571341   19.382029   22.671884 C.3        1 MOL1        -0.2320
      18    H12     23.074935   19.108452   21.735655 H          1 MOL1         0.1008
      19    H13     23.329975   19.784138   23.355760 H          1 MOL1         0.1008
      20    H14     22.169334   18.467988   23.126367 H          1 MOL1         0.1008
@<TRIPOS>BOND
    1     1     2    1
    2     1     3    1
    3     1     4    1
    4     1     5    1
    5     5     6    1
    6     5     7    1
    7     5     8    1
    8     8     9    1
    9     8    10    1
   10     8    11    1
   11    11    12    1
   12    11    13    1
   13    11    14    1
   14    14    15    1
   15    14    16    1
   16    14    17    1
   17    17    18    1
   18    17    19    1
   19    17    20    1
@<TRIPOS>SUBSTRUCTURE
       1 MOL1            1 RESIDUE      1      MOL     
@<SCITEGIC>MOL_PROPERTY
VConf Rank
SciTegic.value.IntegerValue
791

@<SCITEGIC>MOL_PROPERTY
Conf_Id
SciTegic.value.IntegerValue
22

@<SCITEGIC>MOL_PROPERTY
Delta U+W
SciTegic.value.DoubleValue
0.731

@<SCITEGIC>MOL_PROPERTY
U+W
SciTegic.value.DoubleValue
-11.047

@<SCITEGIC>MOL_PROPERTY
Grad RMS
SciTegic.value.DoubleValue
0.000000

@<SCITEGIC>MOL_PROPERTY
U
SciTegic.value.DoubleValue
47.078

@<SCITEGIC>MOL_PROPERTY
W
SciTegic.value.DoubleValue
-58.125

@<SCITEGIC>MOL_PROPERTY
W(PB)
SciTegic.value.DoubleValue
-60.031

@<SCITEGIC>MOL_PROPERTY
W(SA)
SciTegic.value.DoubleValue
1.906

@<SCITEGIC>MOL_PROPERTY
Valence
SciTegic.value.DoubleValue
2.039

@<SCITEGIC>MOL_PROPERTY
Coulomb
SciTegic.value.DoubleValue
44.655

@<SCITEGIC>MOL_PROPERTY
VdW
SciTegic.value.DoubleValue
0.383

@<SCITEGIC>MOL_PROPERTY
VdW6
SciTegic.value.DoubleValue
-4.913

@<SCITEGIC>MOL_PROPERTY
VdW12
SciTegic.value.DoubleValue
5.296

@<SCITEGIC>MOL_PROPERTY
Bond
SciTegic.value.DoubleValue
0.159

@<SCITEGIC>MOL_PROPERTY
Angle
SciTegic.value.DoubleValue
0.856

@<SCITEGIC>MOL_PROPERTY
Pdih
SciTegic.value.DoubleValue
1.024

@<SCITEGIC>MOL_PROPERTY
Idih
SciTegic.value.DoubleValue
0.000

@<SCITEGIC>MOL_PROPERTY
Tether
SciTegic.value.DoubleValue
0.000

@<TRIPOS>MOLECULE
guest-s11_confgen4.mol2 : confsearch ligand conformer 792
          20          19           1
SMALL
USER_CHARGES
 
@<TRIPOS>ATOM
       1    N1      20.358108   21.946324   22.575488 N.4        1 MOL1        -0.5919
       2    H1      20.616421   22.168664   21.608962 H          1 MOL1         0.3682
       3    H2      19.459230   22.402897   22.759526 H          1 MOL1         0.3682
       4    H3      21.050935   22.399809   23.180331 H          1 MOL1         0.3682
       5    C1      20.293580   20.451295   22.814930 C.3        1 MOL1         0.0252
       6    H4      20.041518   20.287531   23.866140 H          1 MOL1         0.0971
       7    H5      21.289161   20.042362   22.628220 H          1 MOL1         0.0971
       8    C2      19.265682   19.739546   21.917428 C.3        1 MOL1        -0.1369
       9    H6      18.294505   20.240209   22.027312 H          1 MOL1         0.0997
      10    H7      19.556845   19.855646   20.865036 H          1 MOL1         0.0997
      11    C3      19.081768   18.235605   22.243389 C.3        1 MOL1        -0.1329
      12    H8      18.267469   17.858023   21.609434 H          1 MOL1         0.0997
      13    H9      18.733559   18.112022   23.278197 H          1 MOL1         0.0997
      14    C4      20.332987   17.354794   21.990775 C.3        1 MOL1        -0.1305
      15    H10     19.995161   16.336375   21.752451 H          1 MOL1         0.0997
      16    H11     20.875031   17.708109   21.102463 H          1 MOL1         0.0997
      17    C5      21.290390   17.263405   23.202329 C.3        1 MOL1        -0.2320
      18    H12     21.743986   18.229278   23.447715 H          1 MOL1         0.1008
      19    H13     20.763906   16.897937   24.093537 H          1 MOL1         0.1008
      20    H14     22.108364   16.562781   22.990131 H          1 MOL1         0.1008
@<TRIPOS>BOND
    1     1     2    1
    2     1     3    1
    3     1     4    1
    4     1     5    1
    5     5     6    1
    6     5     7    1
    7     5     8    1
    8     8     9    1
    9     8    10    1
   10     8    11    1
   11    11    12    1
   12    11    13    1
   13    11    14    1
   14    14    15    1
   15    14    16    1
   16    14    17    1
   17    17    18    1
   18    17    19    1
   19    17    20    1
@<TRIPOS>SUBSTRUCTURE
       1 MOL1            1 RESIDUE      1      MOL     
@<SCITEGIC>MOL_PROPERTY
VConf Rank
SciTegic.value.IntegerValue
792

@<SCITEGIC>MOL_PROPERTY
Conf_Id
SciTegic.value.IntegerValue
61

@<SCITEGIC>MOL_PROPERTY
Delta U+W
SciTegic.value.DoubleValue
2.669

@<SCITEGIC>MOL_PROPERTY
U+W
SciTegic.value.DoubleValue
-9.108

@<SCITEGIC>MOL_PROPERTY
Grad RMS
SciTegic.value.DoubleValue
0.000000

@<SCITEGIC>MOL_PROPERTY
U
SciTegic.value.DoubleValue
48.916

@<SCITEGIC>MOL_PROPERTY
W
SciTegic.value.DoubleValue
-58.025

@<SCITEGIC>MOL_PROPERTY
W(PB)
SciTegic.value.DoubleValue
-59.935

@<SCITEGIC>MOL_PROPERTY
W(SA)
SciTegic.value.DoubleValue
1.911

@<SCITEGIC>MOL_PROPERTY
Valence
SciTegic.value.DoubleValue
3.785

@<SCITEGIC>MOL_PROPERTY
Coulomb
SciTegic.value.DoubleValue
44.716

@<SCITEGIC>MOL_PROPERTY
VdW
SciTegic.value.DoubleValue
0.415

@<SCITEGIC>MOL_PROPERTY
VdW6
SciTegic.value.DoubleValue
-4.836

@<SCITEGIC>MOL_PROPERTY
VdW12
SciTegic.value.DoubleValue
5.251

@<SCITEGIC>MOL_PROPERTY
Bond
SciTegic.value.DoubleValue
0.175

@<SCITEGIC>MOL_PROPERTY
Angle
SciTegic.value.DoubleValue
1.195

@<SCITEGIC>MOL_PROPERTY
Pdih
SciTegic.value.DoubleValue
2.415

@<SCITEGIC>MOL_PROPERTY
Idih
SciTegic.value.DoubleValue
0.000

@<SCITEGIC>MOL_PROPERTY
Tether
SciTegic.value.DoubleValue
0.000

@<TRIPOS>MOLECULE
guest-s11_confgen4.mol2 : confsearch ligand conformer 793
          20          19           1
SMALL
USER_CHARGES
 
@<TRIPOS>ATOM
       1    N1      19.823604   19.739898   20.259363 N.4        1 MOL1        -0.5919
       2    H1      20.131039   19.620108   19.288396 H          1 MOL1         0.3682
       3    H2      19.159801   20.520682   20.265983 H          1 MOL1         0.3682
       4    H3      20.641411   20.034121   20.799409 H          1 MOL1         0.3682
       5    C1      19.204787   18.470707   20.813250 C.3        1 MOL1         0.0252
       6    H4      19.934634   17.661095   20.728466 H          1 MOL1         0.0971
       7    H5      18.353241   18.226273   20.172405 H          1 MOL1         0.0971
       8    C2      18.716460   18.585237   22.272666 C.3        1 MOL1        -0.1369
       9    H6      18.204470   19.544778   22.424198 H          1 MOL1         0.0997
      10    H7      17.955146   17.809957   22.431450 H          1 MOL1         0.0997
      11    C3      19.823425   18.388714   23.340269 C.3        1 MOL1        -0.1329
      12    H8      20.285632   17.400257   23.210719 H          1 MOL1         0.0997
      13    H9      19.345298   18.374713   24.329551 H          1 MOL1         0.0997
      14    C4      20.922502   19.476961   23.332472 C.3        1 MOL1        -0.1305
      15    H10     21.512838   19.408683   22.410142 H          1 MOL1         0.0997
      16    H11     20.461226   20.474322   23.353364 H          1 MOL1         0.0997
      17    C5      21.875754   19.330693   24.537849 C.3        1 MOL1        -0.2320
      18    H12     22.654765   20.103701   24.512322 H          1 MOL1         0.1008
      19    H13     21.332679   19.432414   25.486503 H          1 MOL1         0.1008
      20    H14     22.372584   18.351717   24.531773 H          1 MOL1         0.1008
@<TRIPOS>BOND
    1     1     2    1
    2     1     3    1
    3     1     4    1
    4     1     5    1
    5     5     6    1
    6     5     7    1
    7     5     8    1
    8     8     9    1
    9     8    10    1
   10     8    11    1
   11    11    12    1
   12    11    13    1
   13    11    14    1
   14    14    15    1
   15    14    16    1
   16    14    17    1
   17    17    18    1
   18    17    19    1
   19    17    20    1
@<TRIPOS>SUBSTRUCTURE
       1 MOL1            1 RESIDUE      1      MOL     
@<SCITEGIC>MOL_PROPERTY
VConf Rank
SciTegic.value.IntegerValue
793

@<SCITEGIC>MOL_PROPERTY
Conf_Id
SciTegic.value.IntegerValue
69

@<SCITEGIC>MOL_PROPERTY
Delta U+W
SciTegic.value.DoubleValue
2.811

@<SCITEGIC>MOL_PROPERTY
U+W
SciTegic.value.DoubleValue
-8.967

@<SCITEGIC>MOL_PROPERTY
Grad RMS
SciTegic.value.DoubleValue
0.000000

@<SCITEGIC>MOL_PROPERTY
U
SciTegic.value.DoubleValue
49.216

@<SCITEGIC>MOL_PROPERTY
W
SciTegic.value.DoubleValue
-58.183

@<SCITEGIC>MOL_PROPERTY
W(PB)
SciTegic.value.DoubleValue
-60.064

@<SCITEGIC>MOL_PROPERTY
W(SA)
SciTegic.value.DoubleValue
1.881

@<SCITEGIC>MOL_PROPERTY
Valence
SciTegic.value.DoubleValue
2.929

@<SCITEGIC>MOL_PROPERTY
Coulomb
SciTegic.value.DoubleValue
46.006

@<SCITEGIC>MOL_PROPERTY
VdW
SciTegic.value.DoubleValue
0.281

@<SCITEGIC>MOL_PROPERTY
VdW6
SciTegic.value.DoubleValue
-4.909

@<SCITEGIC>MOL_PROPERTY
VdW12
SciTegic.value.DoubleValue
5.190

@<SCITEGIC>MOL_PROPERTY
Bond
SciTegic.value.DoubleValue
0.156

@<SCITEGIC>MOL_PROPERTY
Angle
SciTegic.value.DoubleValue
0.974

@<SCITEGIC>MOL_PROPERTY
Pdih
SciTegic.value.DoubleValue
1.799

@<SCITEGIC>MOL_PROPERTY
Idih
SciTegic.value.DoubleValue
0.000

@<SCITEGIC>MOL_PROPERTY
Tether
SciTegic.value.DoubleValue
0.000

@<TRIPOS>MOLECULE
guest-s11_confgen4.mol2 : confsearch ligand conformer 794
          20          19           1
SMALL
USER_CHARGES
 
@<TRIPOS>ATOM
       1    N1      20.204975   19.101328   24.715381 N.4        1 MOL1        -0.5919
       2    H1      20.984289   18.788758   24.130575 H          1 MOL1         0.3682
       3    H2      20.436260   20.041913   25.050210 H          1 MOL1         0.3682
       4    H3      20.182424   18.490509   25.538809 H          1 MOL1         0.3682
       5    C1      18.887671   19.079843   23.963838 C.3        1 MOL1         0.0252
       6    H4      18.116848   19.413787   24.663745 H          1 MOL1         0.0971
       7    H5      18.663683   18.047460   23.682139 H          1 MOL1         0.0971
       8    C2      18.853727   19.983350   22.713238 C.3        1 MOL1        -0.1369
       9    H6      17.802125   20.213856   22.496743 H          1 MOL1         0.0997
      10    H7      19.333800   20.946538   22.931446 H          1 MOL1         0.0997
      11    C3      19.471472   19.347363   21.441356 C.3        1 MOL1        -0.1329
      12    H8      19.288318   20.025924   20.596674 H          1 MOL1         0.0997
      13    H9      18.941273   18.414620   21.203986 H          1 MOL1         0.0997
      14    C4      20.989683   19.067625   21.536725 C.3        1 MOL1        -0.1305
      15    H10     21.515374   19.970206   21.878691 H          1 MOL1         0.0997
      16    H11     21.181055   18.278206   22.274320 H          1 MOL1         0.0997
      17    C5      21.572001   18.622266   20.178205 C.3        1 MOL1        -0.2320
      18    H12     21.438223   19.400879   19.415915 H          1 MOL1         0.1008
      19    H13     22.647186   18.418598   20.265093 H          1 MOL1         0.1008
      20    H14     21.083688   17.706357   19.820529 H          1 MOL1         0.1008
@<TRIPOS>BOND
    1     1     2    1
    2     1     3    1
    3     1     4    1
    4     1     5    1
    5     5     6    1
    6     5     7    1
    7     5     8    1
    8     8     9    1
    9     8    10    1
   10     8    11    1
   11    11    12    1
   12    11    13    1
   13    11    14    1
   14    14    15    1
   15    14    16    1
   16    14    17    1
   17    17    18    1
   18    17    19    1
   19    17    20    1
@<TRIPOS>SUBSTRUCTURE
       1 MOL1            1 RESIDUE      1      MOL     
@<SCITEGIC>MOL_PROPERTY
VConf Rank
SciTegic.value.IntegerValue
794

@<SCITEGIC>MOL_PROPERTY
Conf_Id
SciTegic.value.IntegerValue
26

@<SCITEGIC>MOL_PROPERTY
Delta U+W
SciTegic.value.DoubleValue
2.809

@<SCITEGIC>MOL_PROPERTY
U+W
SciTegic.value.DoubleValue
-8.969

@<SCITEGIC>MOL_PROPERTY
Grad RMS
SciTegic.value.DoubleValue
0.000000

@<SCITEGIC>MOL_PROPERTY
U
SciTegic.value.DoubleValue
49.216

@<SCITEGIC>MOL_PROPERTY
W
SciTegic.value.DoubleValue
-58.185

@<SCITEGIC>MOL_PROPERTY
W(PB)
SciTegic.value.DoubleValue
-60.088

@<SCITEGIC>MOL_PROPERTY
W(SA)
SciTegic.value.DoubleValue
1.903

@<SCITEGIC>MOL_PROPERTY
Valence
SciTegic.value.DoubleValue
2.929

@<SCITEGIC>MOL_PROPERTY
Coulomb
SciTegic.value.DoubleValue
46.006

@<SCITEGIC>MOL_PROPERTY
VdW
SciTegic.value.DoubleValue
0.281

@<SCITEGIC>MOL_PROPERTY
VdW6
SciTegic.value.DoubleValue
-4.909

@<SCITEGIC>MOL_PROPERTY
VdW12
SciTegic.value.DoubleValue
5.190

@<SCITEGIC>MOL_PROPERTY
Bond
SciTegic.value.DoubleValue
0.156

@<SCITEGIC>MOL_PROPERTY
Angle
SciTegic.value.DoubleValue
0.974

@<SCITEGIC>MOL_PROPERTY
Pdih
SciTegic.value.DoubleValue
1.799

@<SCITEGIC>MOL_PROPERTY
Idih
SciTegic.value.DoubleValue
0.000

@<SCITEGIC>MOL_PROPERTY
Tether
SciTegic.value.DoubleValue
0.000

@<TRIPOS>MOLECULE
guest-s11_confgen4.mol2 : confsearch ligand conformer 795
          20          19           1
SMALL
USER_CHARGES
 
@<TRIPOS>ATOM
       1    N1      22.349399   20.111240   22.688551 N.4        1 MOL1        -0.5919
       2    H1      21.878502   20.232171   23.589978 H          1 MOL1         0.3682
       3    H2      23.122410   19.455012   22.836392 H          1 MOL1         0.3682
       4    H3      22.767695   21.014912   22.444183 H          1 MOL1         0.3682
       5    C1      21.393505   19.624189   21.617081 C.3        1 MOL1         0.0252
       6    H4      21.953361   19.548005   20.680990 H          1 MOL1         0.0971
       7    H5      20.615573   20.380889   21.486089 H          1 MOL1         0.0971
       8    C2      20.745082   18.262218   21.937822 C.3        1 MOL1        -0.1369
       9    H6      20.132781   17.951517   21.081619 H          1 MOL1         0.0997
      10    H7      21.532607   17.503114   22.033749 H          1 MOL1         0.0997
      11    C3      19.878292   18.263945   23.224549 C.3        1 MOL1        -0.1329
      12    H8      20.525818   18.414453   24.098771 H          1 MOL1         0.0997
      13    H9      19.433783   17.267349   23.352640 H          1 MOL1         0.0997
      14    C4      18.749647   19.326344   23.246896 C.3        1 MOL1        -0.1305
      15    H10     18.217670   19.252659   24.205761 H          1 MOL1         0.0997
      16    H11     19.178140   20.337280   23.216916 H          1 MOL1         0.0997
      17    C5      17.729283   19.160982   22.097828 C.3        1 MOL1        -0.2320
      18    H12     17.297680   18.151688   22.095305 H          1 MOL1         0.1008
      19    H13     16.905472   19.877827   22.208976 H          1 MOL1         0.1008
      20    H14     18.192170   19.339600   21.119344 H          1 MOL1         0.1008
@<TRIPOS>BOND
    1     1     2    1
    2     1     3    1
    3     1     4    1
    4     1     5    1
    5     5     6    1
    6     5     7    1
    7     5     8    1
    8     8     9    1
    9     8    10    1
   10     8    11    1
   11    11    12    1
   12    11    13    1
   13    11    14    1
   14    14    15    1
   15    14    16    1
   16    14    17    1
   17    17    18    1
   18    17    19    1
   19    17    20    1
@<TRIPOS>SUBSTRUCTURE
       1 MOL1            1 RESIDUE      1      MOL     
@<SCITEGIC>MOL_PROPERTY
VConf Rank
SciTegic.value.IntegerValue
795

@<SCITEGIC>MOL_PROPERTY
Conf_Id
SciTegic.value.IntegerValue
2

@<SCITEGIC>MOL_PROPERTY
Delta U+W
SciTegic.value.DoubleValue
0.994

@<SCITEGIC>MOL_PROPERTY
U+W
SciTegic.value.DoubleValue
-10.784

@<SCITEGIC>MOL_PROPERTY
Grad RMS
SciTegic.value.DoubleValue
0.000000

@<SCITEGIC>MOL_PROPERTY
U
SciTegic.value.DoubleValue
47.562

@<SCITEGIC>MOL_PROPERTY
W
SciTegic.value.DoubleValue
-58.346

@<SCITEGIC>MOL_PROPERTY
W(PB)
SciTegic.value.DoubleValue
-60.221

@<SCITEGIC>MOL_PROPERTY
W(SA)
SciTegic.value.DoubleValue
1.875

@<SCITEGIC>MOL_PROPERTY
Valence
SciTegic.value.DoubleValue
2.149

@<SCITEGIC>MOL_PROPERTY
Coulomb
SciTegic.value.DoubleValue
45.034

@<SCITEGIC>MOL_PROPERTY
VdW
SciTegic.value.DoubleValue
0.378

@<SCITEGIC>MOL_PROPERTY
VdW6
SciTegic.value.DoubleValue
-5.599

@<SCITEGIC>MOL_PROPERTY
VdW12
SciTegic.value.DoubleValue
5.977

@<SCITEGIC>MOL_PROPERTY
Bond
SciTegic.value.DoubleValue
0.185

@<SCITEGIC>MOL_PROPERTY
Angle
SciTegic.value.DoubleValue
0.935

@<SCITEGIC>MOL_PROPERTY
Pdih
SciTegic.value.DoubleValue
1.028

@<SCITEGIC>MOL_PROPERTY
Idih
SciTegic.value.DoubleValue
0.000

@<SCITEGIC>MOL_PROPERTY
Tether
SciTegic.value.DoubleValue
0.000

@<TRIPOS>MOLECULE
guest-s11_confgen4.mol2 : confsearch ligand conformer 796
          20          19           1
SMALL
USER_CHARGES
 
@<TRIPOS>ATOM
       1    N1      19.549553   18.307713   20.257229 N.4        1 MOL1        -0.5919
       2    H1      19.577791   17.297104   20.090163 H          1 MOL1         0.3682
       3    H2      18.681336   18.506732   20.762728 H          1 MOL1         0.3682
       4    H3      19.473905   18.759805   19.340060 H          1 MOL1         0.3682
       5    C1      20.767216   18.786741   21.023274 C.3        1 MOL1         0.0252
       6    H4      20.691512   19.871160   21.138326 H          1 MOL1         0.0971
       7    H5      21.649597   18.571203   20.414625 H          1 MOL1         0.0971
       8    C2      20.927157   18.127055   22.408020 C.3        1 MOL1        -0.1369
       9    H6      21.036366   17.042170   22.278656 H          1 MOL1         0.0997
      10    H7      21.867636   18.470947   22.857208 H          1 MOL1         0.0997
      11    C3      19.751779   18.409428   23.380514 C.3        1 MOL1        -0.1329
      12    H8      19.968391   17.930409   24.345304 H          1 MOL1         0.0997
      13    H9      18.843161   17.920632   23.004085 H          1 MOL1         0.0997
      14    C4      19.451729   19.911443   23.619167 C.3        1 MOL1        -0.1305
      15    H10     19.138291   20.390404   22.681697 H          1 MOL1         0.0997
      16    H11     18.593882   19.993592   24.301223 H          1 MOL1         0.0997
      17    C5      20.644402   20.686241   24.224195 C.3        1 MOL1        -0.2320
      18    H12     21.491121   20.729967   23.527950 H          1 MOL1         0.1008
      19    H13     20.354114   21.719135   24.456034 H          1 MOL1         0.1008
      20    H14     20.988273   20.217395   25.155267 H          1 MOL1         0.1008
@<TRIPOS>BOND
    1     1     2    1
    2     1     3    1
    3     1     4    1
    4     1     5    1
    5     5     6    1
    6     5     7    1
    7     5     8    1
    8     8     9    1
    9     8    10    1
   10     8    11    1
   11    11    12    1
   12    11    13    1
   13    11    14    1
   14    14    15    1
   15    14    16    1
   16    14    17    1
   17    17    18    1
   18    17    19    1
   19    17    20    1
@<TRIPOS>SUBSTRUCTURE
       1 MOL1            1 RESIDUE      1      MOL     
@<SCITEGIC>MOL_PROPERTY
VConf Rank
SciTegic.value.IntegerValue
796

@<SCITEGIC>MOL_PROPERTY
Conf_Id
SciTegic.value.IntegerValue
1

@<SCITEGIC>MOL_PROPERTY
Delta U+W
SciTegic.value.DoubleValue
1.032

@<SCITEGIC>MOL_PROPERTY
U+W
SciTegic.value.DoubleValue
-10.746

@<SCITEGIC>MOL_PROPERTY
Grad RMS
SciTegic.value.DoubleValue
0.000000

@<SCITEGIC>MOL_PROPERTY
U
SciTegic.value.DoubleValue
47.562

@<SCITEGIC>MOL_PROPERTY
W
SciTegic.value.DoubleValue
-58.308

@<SCITEGIC>MOL_PROPERTY
W(PB)
SciTegic.value.DoubleValue
-60.184

@<SCITEGIC>MOL_PROPERTY
W(SA)
SciTegic.value.DoubleValue
1.877

@<SCITEGIC>MOL_PROPERTY
Valence
SciTegic.value.DoubleValue
2.149

@<SCITEGIC>MOL_PROPERTY
Coulomb
SciTegic.value.DoubleValue
45.035

@<SCITEGIC>MOL_PROPERTY
VdW
SciTegic.value.DoubleValue
0.378

@<SCITEGIC>MOL_PROPERTY
VdW6
SciTegic.value.DoubleValue
-5.599

@<SCITEGIC>MOL_PROPERTY
VdW12
SciTegic.value.DoubleValue
5.978

@<SCITEGIC>MOL_PROPERTY
Bond
SciTegic.value.DoubleValue
0.185

@<SCITEGIC>MOL_PROPERTY
Angle
SciTegic.value.DoubleValue
0.935

@<SCITEGIC>MOL_PROPERTY
Pdih
SciTegic.value.DoubleValue
1.028

@<SCITEGIC>MOL_PROPERTY
Idih
SciTegic.value.DoubleValue
0.000

@<SCITEGIC>MOL_PROPERTY
Tether
SciTegic.value.DoubleValue
0.000

@<TRIPOS>MOLECULE
guest-s11_confgen4.mol2 : confsearch ligand conformer 797
          20          19           1
SMALL
USER_CHARGES
 
@<TRIPOS>ATOM
       1    N1      21.549547   21.011532   22.113387 N.4        1 MOL1        -0.5919
       2    H1      22.555486   20.959888   22.301831 H          1 MOL1         0.3682
       3    H2      21.386534   20.554545   21.211570 H          1 MOL1         0.3682
       4    H3      21.319584   22.003391   21.992234 H          1 MOL1         0.3682
       5    C1      20.734089   20.375982   23.222829 C.3        1 MOL1         0.0252
       6    H4      19.678333   20.493499   22.973650 H          1 MOL1         0.0971
       7    H5      20.928249   20.941469   24.138280 H          1 MOL1         0.0971
       8    C2      21.066215   18.888470   23.467194 C.3        1 MOL1        -0.1369
       9    H6      22.135757   18.812986   23.704262 H          1 MOL1         0.0997
      10    H7      20.534907   18.539616   24.362534 H          1 MOL1         0.0997
      11    C3      20.748963   17.947363   22.273883 C.3        1 MOL1        -0.1329
      12    H8      21.379414   17.052975   22.374009 H          1 MOL1         0.0997
      13    H9      21.048224   18.410659   21.324924 H          1 MOL1         0.0997
      14    C4      19.276698   17.468640   22.188488 C.3        1 MOL1        -0.1305
      15    H10     19.197979   16.742071   21.367605 H          1 MOL1         0.0997
      16    H11     19.011346   16.920885   23.103548 H          1 MOL1         0.0997
      17    C5      18.247143   18.594539   21.947039 C.3        1 MOL1        -0.2320
      18    H12     18.544454   19.233500   21.105555 H          1 MOL1         0.1008
      19    H13     17.263161   18.168222   21.712597 H          1 MOL1         0.1008
      20    H14     18.123207   19.220529   22.838571 H          1 MOL1         0.1008
@<TRIPOS>BOND
    1     1     2    1
    2     1     3    1
    3     1     4    1
    4     1     5    1
    5     5     6    1
    6     5     7    1
    7     5     8    1
    8     8     9    1
    9     8    10    1
   10     8    11    1
   11    11    12    1
   12    11    13    1
   13    11    14    1
   14    14    15    1
   15    14    16    1
   16    14    17    1
   17    17    18    1
   18    17    19    1
   19    17    20    1
@<TRIPOS>SUBSTRUCTURE
       1 MOL1            1 RESIDUE      1      MOL     
@<SCITEGIC>MOL_PROPERTY
VConf Rank
SciTegic.value.IntegerValue
797

@<SCITEGIC>MOL_PROPERTY
Conf_Id
SciTegic.value.IntegerValue
80

@<SCITEGIC>MOL_PROPERTY
Delta U+W
SciTegic.value.DoubleValue
2.920

@<SCITEGIC>MOL_PROPERTY
U+W
SciTegic.value.DoubleValue
-8.857

@<SCITEGIC>MOL_PROPERTY
Grad RMS
SciTegic.value.DoubleValue
0.000000

@<SCITEGIC>MOL_PROPERTY
U
SciTegic.value.DoubleValue
49.434

@<SCITEGIC>MOL_PROPERTY
W
SciTegic.value.DoubleValue
-58.292

@<SCITEGIC>MOL_PROPERTY
W(PB)
SciTegic.value.DoubleValue
-60.170

@<SCITEGIC>MOL_PROPERTY
W(SA)
SciTegic.value.DoubleValue
1.879

@<SCITEGIC>MOL_PROPERTY
Valence
SciTegic.value.DoubleValue
3.798

@<SCITEGIC>MOL_PROPERTY
Coulomb
SciTegic.value.DoubleValue
45.253

@<SCITEGIC>MOL_PROPERTY
VdW
SciTegic.value.DoubleValue
0.384

@<SCITEGIC>MOL_PROPERTY
VdW6
SciTegic.value.DoubleValue
-5.595

@<SCITEGIC>MOL_PROPERTY
VdW12
SciTegic.value.DoubleValue
5.979

@<SCITEGIC>MOL_PROPERTY
Bond
SciTegic.value.DoubleValue
0.198

@<SCITEGIC>MOL_PROPERTY
Angle
SciTegic.value.DoubleValue
1.368

@<SCITEGIC>MOL_PROPERTY
Pdih
SciTegic.value.DoubleValue
2.231

@<SCITEGIC>MOL_PROPERTY
Idih
SciTegic.value.DoubleValue
0.000

@<SCITEGIC>MOL_PROPERTY
Tether
SciTegic.value.DoubleValue
0.000

@<TRIPOS>MOLECULE
guest-s11_confgen4.mol2 : confsearch ligand conformer 798
          20          19           1
SMALL
USER_CHARGES
 
@<TRIPOS>ATOM
       1    N1      20.606199   21.043223   21.111759 N.4        1 MOL1        -0.5919
       2    H1      20.724890   20.891710   20.105257 H          1 MOL1         0.3682
       3    H2      20.487939   22.052401   21.249309 H          1 MOL1         0.3682
       4    H3      21.487119   20.781160   21.563412 H          1 MOL1         0.3682
       5    C1      19.433184   20.258178   21.666283 C.3        1 MOL1         0.0252
       6    H4      18.530063   20.621886   21.168677 H          1 MOL1         0.0971
       7    H5      19.346511   20.489087   22.729150 H          1 MOL1         0.0971
       8    C2      19.547683   18.733360   21.455221 C.3        1 MOL1        -0.1369
       9    H6      18.609796   18.252290   21.762723 H          1 MOL1         0.0997
      10    H7      19.642426   18.545066   20.377544 H          1 MOL1         0.0997
      11    C3      20.741021   18.063675   22.188563 C.3        1 MOL1        -0.1329
      12    H8      21.644000   18.681877   22.103850 H          1 MOL1         0.0997
      13    H9      20.976934   17.128234   21.662521 H          1 MOL1         0.0997
      14    C4      20.481434   17.706104   23.674767 C.3        1 MOL1        -0.1305
      15    H10     19.634307   17.009622   23.745969 H          1 MOL1         0.0997
      16    H11     21.355507   17.158932   24.054961 H          1 MOL1         0.0997
      17    C5      20.225997   18.921176   24.593614 C.3        1 MOL1        -0.2320
      18    H12     19.244213   19.369120   24.399967 H          1 MOL1         0.1008
      19    H13     20.237871   18.612449   25.646930 H          1 MOL1         0.1008
      20    H14     20.997436   19.690696   24.461403 H          1 MOL1         0.1008
@<TRIPOS>BOND
    1     1     2    1
    2     1     3    1
    3     1     4    1
    4     1     5    1
    5     5     6    1
    6     5     7    1
    7     5     8    1
    8     8     9    1
    9     8    10    1
   10     8    11    1
   11    11    12    1
   12    11    13    1
   13    11    14    1
   14    14    15    1
   15    14    16    1
   16    14    17    1
   17    17    18    1
   18    17    19    1
   19    17    20    1
@<TRIPOS>SUBSTRUCTURE
       1 MOL1            1 RESIDUE      1      MOL     
@<SCITEGIC>MOL_PROPERTY
VConf Rank
SciTegic.value.IntegerValue
798

@<SCITEGIC>MOL_PROPERTY
Conf_Id
SciTegic.value.IntegerValue
65

@<SCITEGIC>MOL_PROPERTY
Delta U+W
SciTegic.value.DoubleValue
2.949

@<SCITEGIC>MOL_PROPERTY
U+W
SciTegic.value.DoubleValue
-8.829

@<SCITEGIC>MOL_PROPERTY
Grad RMS
SciTegic.value.DoubleValue
0.000000

@<SCITEGIC>MOL_PROPERTY
U
SciTegic.value.DoubleValue
49.435

@<SCITEGIC>MOL_PROPERTY
W
SciTegic.value.DoubleValue
-58.263

@<SCITEGIC>MOL_PROPERTY
W(PB)
SciTegic.value.DoubleValue
-60.125

@<SCITEGIC>MOL_PROPERTY
W(SA)
SciTegic.value.DoubleValue
1.862

@<SCITEGIC>MOL_PROPERTY
Valence
SciTegic.value.DoubleValue
3.797

@<SCITEGIC>MOL_PROPERTY
Coulomb
SciTegic.value.DoubleValue
45.253

@<SCITEGIC>MOL_PROPERTY
VdW
SciTegic.value.DoubleValue
0.384

@<SCITEGIC>MOL_PROPERTY
VdW6
SciTegic.value.DoubleValue
-5.596

@<SCITEGIC>MOL_PROPERTY
VdW12
SciTegic.value.DoubleValue
5.980

@<SCITEGIC>MOL_PROPERTY
Bond
SciTegic.value.DoubleValue
0.198

@<SCITEGIC>MOL_PROPERTY
Angle
SciTegic.value.DoubleValue
1.369

@<SCITEGIC>MOL_PROPERTY
Pdih
SciTegic.value.DoubleValue
2.230

@<SCITEGIC>MOL_PROPERTY
Idih
SciTegic.value.DoubleValue
0.000

@<SCITEGIC>MOL_PROPERTY
Tether
SciTegic.value.DoubleValue
0.000

@<TRIPOS>MOLECULE
guest-s11_confgen4.mol2 : confsearch ligand conformer 799
          20          19           1
SMALL
USER_CHARGES
 
@<TRIPOS>ATOM
       1    N1      18.159470   19.348252   22.714035 N.4        1 MOL1        -0.5919
       2    H1      17.348842   19.733977   22.218273 H          1 MOL1         0.3682
       3    H2      18.584565   18.643731   22.103569 H          1 MOL1         0.3682
       4    H3      17.798953   18.859144   23.539388 H          1 MOL1         0.3682
       5    C1      19.155931   20.427578   23.090433 C.3        1 MOL1         0.0252
       6    H4      18.631322   21.134535   23.738906 H          1 MOL1         0.0971
       7    H5      19.457158   20.958553   22.183500 H          1 MOL1         0.0971
       8    C2      20.403582   19.899214   23.827053 C.3        1 MOL1        -0.1369
       9    H6      20.827862   20.731731   24.403866 H          1 MOL1         0.0997
      10    H7      20.106499   19.144464   24.567257 H          1 MOL1         0.0997
      11    C3      21.524433   19.338536   22.910978 C.3        1 MOL1        -0.1329
      12    H8      22.364943   19.052409   23.558434 H          1 MOL1         0.0997
      13    H9      21.912404   20.136484   22.262731 H          1 MOL1         0.0997
      14    C4      21.133533   18.104065   22.059040 C.3        1 MOL1        -0.1305
      15    H10     22.006439   17.440268   21.983761 H          1 MOL1         0.0997
      16    H11     20.358548   17.515459   22.568161 H          1 MOL1         0.0997
      17    C5      20.694515   18.471972   20.621776 C.3        1 MOL1        -0.2320
      18    H12     19.868715   19.191290   20.606549 H          1 MOL1         0.1008
      19    H13     21.529274   18.918337   20.065668 H          1 MOL1         0.1008
      20    H14     20.374437   17.576219   20.073728 H          1 MOL1         0.1008
@<TRIPOS>BOND
    1     1     2    1
    2     1     3    1
    3     1     4    1
    4     1     5    1
    5     5     6    1
    6     5     7    1
    7     5     8    1
    8     8     9    1
    9     8    10    1
   10     8    11    1
   11    11    12    1
   12    11    13    1
   13    11    14    1
   14    14    15    1
   15    14    16    1
   16    14    17    1
   17    17    18    1
   18    17    19    1
   19    17    20    1
@<TRIPOS>SUBSTRUCTURE
       1 MOL1            1 RESIDUE      1      MOL     
@<SCITEGIC>MOL_PROPERTY
VConf Rank
SciTegic.value.IntegerValue
799

@<SCITEGIC>MOL_PROPERTY
Conf_Id
SciTegic.value.IntegerValue
77

@<SCITEGIC>MOL_PROPERTY
Delta U+W
SciTegic.value.DoubleValue
5.366

@<SCITEGIC>MOL_PROPERTY
U+W
SciTegic.value.DoubleValue
-6.412

@<SCITEGIC>MOL_PROPERTY
Grad RMS
SciTegic.value.DoubleValue
0.000000

@<SCITEGIC>MOL_PROPERTY
U
SciTegic.value.DoubleValue
51.542

@<SCITEGIC>MOL_PROPERTY
W
SciTegic.value.DoubleValue
-57.954

@<SCITEGIC>MOL_PROPERTY
W(PB)
SciTegic.value.DoubleValue
-59.811

@<SCITEGIC>MOL_PROPERTY
W(SA)
SciTegic.value.DoubleValue
1.857

@<SCITEGIC>MOL_PROPERTY
Valence
SciTegic.value.DoubleValue
5.347

@<SCITEGIC>MOL_PROPERTY
Coulomb
SciTegic.value.DoubleValue
45.870

@<SCITEGIC>MOL_PROPERTY
VdW
SciTegic.value.DoubleValue
0.325

@<SCITEGIC>MOL_PROPERTY
VdW6
SciTegic.value.DoubleValue
-6.161

@<SCITEGIC>MOL_PROPERTY
VdW12
SciTegic.value.DoubleValue
6.486

@<SCITEGIC>MOL_PROPERTY
Bond
SciTegic.value.DoubleValue
0.201

@<SCITEGIC>MOL_PROPERTY
Angle
SciTegic.value.DoubleValue
1.484

@<SCITEGIC>MOL_PROPERTY
Pdih
SciTegic.value.DoubleValue
3.662

@<SCITEGIC>MOL_PROPERTY
Idih
SciTegic.value.DoubleValue
0.000

@<SCITEGIC>MOL_PROPERTY
Tether
SciTegic.value.DoubleValue
0.000

@<TRIPOS>MOLECULE
guest-s11_confgen4.mol2 : confsearch ligand conformer 800
          20          19           1
SMALL
USER_CHARGES
 
@<TRIPOS>ATOM
       1    N1      19.696124   20.937075   22.389407 N.4        1 MOL1        -0.5919
       2    H1      20.259478   21.559482   22.977326 H          1 MOL1         0.3682
       3    H2      20.325391   20.519302   21.697154 H          1 MOL1         0.3682
       4    H3      19.030804   21.528849   21.880649 H          1 MOL1         0.3682
       5    C1      18.991884   19.873595   23.209540 C.3        1 MOL1         0.0252
       6    H4      18.356785   19.281634   22.545136 H          1 MOL1         0.0971
       7    H5      18.345597   20.394785   23.921013 H          1 MOL1         0.0971
       8    C2      19.948187   18.944855   23.985000 C.3        1 MOL1        -0.1369
       9    H6      20.758665   19.535502   24.432293 H          1 MOL1         0.0997
      10    H7      19.388706   18.519328   24.828635 H          1 MOL1         0.0997
      11    C3      20.535426   17.765647   23.163733 C.3        1 MOL1        -0.1329
      12    H8      19.725901   17.101175   22.831149 H          1 MOL1         0.0997
      13    H9      21.147531   17.161883   23.848074 H          1 MOL1         0.0997
      14    C4      21.421342   18.169526   21.957684 C.3        1 MOL1        -0.1305
      15    H10     21.911291   19.134165   22.146591 H          1 MOL1         0.0997
      16    H11     22.236448   17.438306   21.861875 H          1 MOL1         0.0997
      17    C5      20.648776   18.194029   20.617400 C.3        1 MOL1        -0.2320
      18    H12     21.298843   18.537865   19.802311 H          1 MOL1         0.1008
      19    H13     20.296778   17.187389   20.356450 H          1 MOL1         0.1008
      20    H14     19.771917   18.849479   20.650538 H          1 MOL1         0.1008
@<TRIPOS>BOND
    1     1     2    1
    2     1     3    1
    3     1     4    1
    4     1     5    1
    5     5     6    1
    6     5     7    1
    7     5     8    1
    8     8     9    1
    9     8    10    1
   10     8    11    1
   11    11    12    1
   12    11    13    1
   13    11    14    1
   14    14    15    1
   15    14    16    1
   16    14    17    1
   17    17    18    1
   18    17    19    1
   19    17    20    1
@<TRIPOS>SUBSTRUCTURE
       1 MOL1            1 RESIDUE      1      MOL     
@<SCITEGIC>MOL_PROPERTY
VConf Rank
SciTegic.value.IntegerValue
800

@<SCITEGIC>MOL_PROPERTY
Conf_Id
SciTegic.value.IntegerValue
67

@<SCITEGIC>MOL_PROPERTY
Delta U+W
SciTegic.value.DoubleValue
5.353

@<SCITEGIC>MOL_PROPERTY
U+W
SciTegic.value.DoubleValue
-6.425

@<SCITEGIC>MOL_PROPERTY
Grad RMS
SciTegic.value.DoubleValue
0.000000

@<SCITEGIC>MOL_PROPERTY
U
SciTegic.value.DoubleValue
51.541

@<SCITEGIC>MOL_PROPERTY
W
SciTegic.value.DoubleValue
-57.966

@<SCITEGIC>MOL_PROPERTY
W(PB)
SciTegic.value.DoubleValue
-59.821

@<SCITEGIC>MOL_PROPERTY
W(SA)
SciTegic.value.DoubleValue
1.855

@<SCITEGIC>MOL_PROPERTY
Valence
SciTegic.value.DoubleValue
5.347

@<SCITEGIC>MOL_PROPERTY
Coulomb
SciTegic.value.DoubleValue
45.870

@<SCITEGIC>MOL_PROPERTY
VdW
SciTegic.value.DoubleValue
0.325

@<SCITEGIC>MOL_PROPERTY
VdW6
SciTegic.value.DoubleValue
-6.161

@<SCITEGIC>MOL_PROPERTY
VdW12
SciTegic.value.DoubleValue
6.486

@<SCITEGIC>MOL_PROPERTY
Bond
SciTegic.value.DoubleValue
0.201

@<SCITEGIC>MOL_PROPERTY
Angle
SciTegic.value.DoubleValue
1.485

@<SCITEGIC>MOL_PROPERTY
Pdih
SciTegic.value.DoubleValue
3.662

@<SCITEGIC>MOL_PROPERTY
Idih
SciTegic.value.DoubleValue
0.000

@<SCITEGIC>MOL_PROPERTY
Tether
SciTegic.value.DoubleValue
0.000

@<TRIPOS>MOLECULE
guest-s11_confgen4.mol2 : confsearch ligand conformer 801
          20          19           1
SMALL
USER_CHARGES
 
@<TRIPOS>ATOM
       1    N1      19.269065   16.821196   24.524185 N.4        1 MOL1        -0.5919
       2    H1      20.184782   16.375628   24.639596 H          1 MOL1         0.3682
       3    H2      18.793522   16.762178   25.430813 H          1 MOL1         0.3682
       4    H3      18.733057   16.242863   23.869498 H          1 MOL1         0.3682
       5    C1      19.392200   18.253611   24.045111 C.3        1 MOL1         0.0252
       6    H4      19.945717   18.816195   24.801838 H          1 MOL1         0.0971
       7    H5      18.385125   18.673410   23.973794 H          1 MOL1         0.0971
       8    C2      20.102433   18.377703   22.685171 C.3        1 MOL1        -0.1369
       9    H6      21.107331   17.940575   22.757055 H          1 MOL1         0.0997
      10    H7      19.552123   17.798282   21.931847 H          1 MOL1         0.0997
      11    C3      20.207136   19.851463   22.233730 C.3        1 MOL1        -0.1329
      12    H8      20.753682   20.429268   22.992162 H          1 MOL1         0.0997
      13    H9      19.200335   20.287130   22.167857 H          1 MOL1         0.0997
      14    C4      20.918806   19.988301   20.869055 C.3        1 MOL1        -0.1305
      15    H10     21.927226   19.555533   20.931093 H          1 MOL1         0.0997
      16    H11     20.374059   19.413505   20.106882 H          1 MOL1         0.0997
      17    C5      21.021184   21.462330   20.422137 C.3        1 MOL1        -0.2320
      18    H12     21.591102   22.056612   21.148249 H          1 MOL1         0.1008
      19    H13     21.529091   21.538965   19.451982 H          1 MOL1         0.1008
      20    H14     20.025817   21.913441   20.317465 H          1 MOL1         0.1008
@<TRIPOS>BOND
    1     1     2    1
    2     1     3    1
    3     1     4    1
    4     1     5    1
    5     5     6    1
    6     5     7    1
    7     5     8    1
    8     8     9    1
    9     8    10    1
   10     8    11    1
   11    11    12    1
   12    11    13    1
   13    11    14    1
   14    14    15    1
   15    14    16    1
   16    14    17    1
   17    17    18    1
   18    17    19    1
   19    17    20    1
@<TRIPOS>SUBSTRUCTURE
       1 MOL1            1 RESIDUE      1      MOL     
@<SCITEGIC>MOL_PROPERTY
VConf Rank
SciTegic.value.IntegerValue
801

@<SCITEGIC>MOL_PROPERTY
Conf_Id
SciTegic.value.IntegerValue
72

@<SCITEGIC>MOL_PROPERTY
Delta U+W
SciTegic.value.DoubleValue
0.000

@<SCITEGIC>MOL_PROPERTY
U+W
SciTegic.value.DoubleValue
-11.778

@<SCITEGIC>MOL_PROPERTY
Grad RMS
SciTegic.value.DoubleValue
0.000000

@<SCITEGIC>MOL_PROPERTY
U
SciTegic.value.DoubleValue
45.772

@<SCITEGIC>MOL_PROPERTY
W
SciTegic.value.DoubleValue
-57.550

@<SCITEGIC>MOL_PROPERTY
W(PB)
SciTegic.value.DoubleValue
-59.511

@<SCITEGIC>MOL_PROPERTY
W(SA)
SciTegic.value.DoubleValue
1.961

@<SCITEGIC>MOL_PROPERTY
Valence
SciTegic.value.DoubleValue
1.299

@<SCITEGIC>MOL_PROPERTY
Coulomb
SciTegic.value.DoubleValue
44.177

@<SCITEGIC>MOL_PROPERTY
VdW
SciTegic.value.DoubleValue
0.297

@<SCITEGIC>MOL_PROPERTY
VdW6
SciTegic.value.DoubleValue
-3.490

@<SCITEGIC>MOL_PROPERTY
VdW12
SciTegic.value.DoubleValue
3.786

@<SCITEGIC>MOL_PROPERTY
Bond
SciTegic.value.DoubleValue
0.096

@<SCITEGIC>MOL_PROPERTY
Angle
SciTegic.value.DoubleValue
0.381

@<SCITEGIC>MOL_PROPERTY
Pdih
SciTegic.value.DoubleValue
0.822

@<SCITEGIC>MOL_PROPERTY
Idih
SciTegic.value.DoubleValue
0.000

@<SCITEGIC>MOL_PROPERTY
Tether
SciTegic.value.DoubleValue
0.000

@<TRIPOS>MOLECULE
guest-s11_confgen4.mol2 : confsearch ligand conformer 802
          20          19           1
SMALL
USER_CHARGES
 
@<TRIPOS>ATOM
       1    N1      19.229647   18.696380   25.316529 N.4        1 MOL1        -0.5919
       2    H1      20.011692   18.052665   25.472645 H          1 MOL1         0.3682
       3    H2      19.506417   19.605473   25.700340 H          1 MOL1         0.3682
       4    H3      18.447896   18.358287   25.887616 H          1 MOL1         0.3682
       5    C1      18.856736   18.790112   23.850675 C.3        1 MOL1         0.0252
       6    H4      18.001409   19.465515   23.762702 H          1 MOL1         0.0971
       7    H5      18.545093   17.796478   23.517394 H          1 MOL1         0.0971
       8    C2      20.009019   19.295633   22.964130 C.3        1 MOL1        -0.1369
       9    H6      20.329388   20.286597   23.312220 H          1 MOL1         0.0997
      10    H7      20.867285   18.620799   23.073880 H          1 MOL1         0.0997
      11    C3      19.583703   19.377682   21.479037 C.3        1 MOL1        -0.1329
      12    H8      18.678315   19.995535   21.399838 H          1 MOL1         0.0997
      13    H9      19.307110   18.377526   21.117412 H          1 MOL1         0.0997
      14    C4      20.672233   19.978775   20.556833 C.3        1 MOL1        -0.1305
      15    H10     20.253219   20.097632   19.547755 H          1 MOL1         0.0997
      16    H11     20.934784   20.989010   20.900880 H          1 MOL1         0.0997
      17    C5      21.949079   19.112113   20.466873 C.3        1 MOL1        -0.2320
      18    H12     21.710259   18.088065   20.151747 H          1 MOL1         0.1008
      19    H13     22.648604   19.533835   19.733545 H          1 MOL1         0.1008
      20    H14     22.472141   19.062784   21.429886 H          1 MOL1         0.1008
@<TRIPOS>BOND
    1     1     2    1
    2     1     3    1
    3     1     4    1
    4     1     5    1
    5     5     6    1
    6     5     7    1
    7     5     8    1
    8     8     9    1
    9     8    10    1
   10     8    11    1
   11    11    12    1
   12    11    13    1
   13    11    14    1
   14    14    15    1
   15    14    16    1
   16    14    17    1
   17    17    18    1
   18    17    19    1
   19    17    20    1
@<TRIPOS>SUBSTRUCTURE
       1 MOL1            1 RESIDUE      1      MOL     
@<SCITEGIC>MOL_PROPERTY
VConf Rank
SciTegic.value.IntegerValue
802

@<SCITEGIC>MOL_PROPERTY
Conf_Id
SciTegic.value.IntegerValue
42

@<SCITEGIC>MOL_PROPERTY
Delta U+W
SciTegic.value.DoubleValue
0.508

@<SCITEGIC>MOL_PROPERTY
U+W
SciTegic.value.DoubleValue
-11.270

@<SCITEGIC>MOL_PROPERTY
Grad RMS
SciTegic.value.DoubleValue
0.000000

@<SCITEGIC>MOL_PROPERTY
U
SciTegic.value.DoubleValue
46.486

@<SCITEGIC>MOL_PROPERTY
W
SciTegic.value.DoubleValue
-57.756

@<SCITEGIC>MOL_PROPERTY
W(PB)
SciTegic.value.DoubleValue
-59.705

@<SCITEGIC>MOL_PROPERTY
W(SA)
SciTegic.value.DoubleValue
1.949

@<SCITEGIC>MOL_PROPERTY
Valence
SciTegic.value.DoubleValue
1.806

@<SCITEGIC>MOL_PROPERTY
Coulomb
SciTegic.value.DoubleValue
44.248

@<SCITEGIC>MOL_PROPERTY
VdW
SciTegic.value.DoubleValue
0.433

@<SCITEGIC>MOL_PROPERTY
VdW6
SciTegic.value.DoubleValue
-4.089

@<SCITEGIC>MOL_PROPERTY
VdW12
SciTegic.value.DoubleValue
4.522

@<SCITEGIC>MOL_PROPERTY
Bond
SciTegic.value.DoubleValue
0.131

@<SCITEGIC>MOL_PROPERTY
Angle
SciTegic.value.DoubleValue
0.628

@<SCITEGIC>MOL_PROPERTY
Pdih
SciTegic.value.DoubleValue
1.047

@<SCITEGIC>MOL_PROPERTY
Idih
SciTegic.value.DoubleValue
0.000

@<SCITEGIC>MOL_PROPERTY
Tether
SciTegic.value.DoubleValue
0.000

@<TRIPOS>MOLECULE
guest-s11_confgen4.mol2 : confsearch ligand conformer 803
          20          19           1
SMALL
USER_CHARGES
 
@<TRIPOS>ATOM
       1    N1      17.778873   17.784148   21.160068 N.4        1 MOL1        -0.5919
       2    H1      17.486259   18.591520   20.600701 H          1 MOL1         0.3682
       3    H2      18.385781   17.210207   20.566276 H          1 MOL1         0.3682
       4    H3      16.935989   17.230638   21.346499 H          1 MOL1         0.3682
       5    C1      18.471691   18.203537   22.440965 C.3        1 MOL1         0.0252
       6    H4      18.727598   17.298357   22.998341 H          1 MOL1         0.0971
       7    H5      17.759954   18.782861   23.035363 H          1 MOL1         0.0971
       8    C2      19.742135   19.037581   22.196807 C.3        1 MOL1        -0.1369
       9    H6      20.441227   18.453647   21.584958 H          1 MOL1         0.0997
      10    H7      19.483134   19.937431   21.623221 H          1 MOL1         0.0997
      11    C3      20.414099   19.444861   23.529369 C.3        1 MOL1        -0.1329
      12    H8      20.715046   18.544314   24.082572 H          1 MOL1         0.0997
      13    H9      19.676097   19.961298   24.158963 H          1 MOL1         0.0997
      14    C4      21.639526   20.372795   23.345156 C.3        1 MOL1        -0.1305
      15    H10     21.337931   21.285936   22.813093 H          1 MOL1         0.0997
      16    H11     21.989009   20.696218   24.335711 H          1 MOL1         0.0997
      17    C5      22.813667   19.699771   22.598186 C.3        1 MOL1        -0.2320
      18    H12     22.550215   19.466117   21.559233 H          1 MOL1         0.1008
      19    H13     23.686067   20.365598   22.574799 H          1 MOL1         0.1008
      20    H14     23.116042   18.768578   23.094636 H          1 MOL1         0.1008
@<TRIPOS>BOND
    1     1     2    1
    2     1     3    1
    3     1     4    1
    4     1     5    1
    5     5     6    1
    6     5     7    1
    7     5     8    1
    8     8     9    1
    9     8    10    1
   10     8    11    1
   11    11    12    1
   12    11    13    1
   13    11    14    1
   14    14    15    1
   15    14    16    1
   16    14    17    1
   17    17    18    1
   18    17    19    1
   19    17    20    1
@<TRIPOS>SUBSTRUCTURE
       1 MOL1            1 RESIDUE      1      MOL     
@<SCITEGIC>MOL_PROPERTY
VConf Rank
SciTegic.value.IntegerValue
803

@<SCITEGIC>MOL_PROPERTY
Conf_Id
SciTegic.value.IntegerValue
41

@<SCITEGIC>MOL_PROPERTY
Delta U+W
SciTegic.value.DoubleValue
0.515

@<SCITEGIC>MOL_PROPERTY
U+W
SciTegic.value.DoubleValue
-11.263

@<SCITEGIC>MOL_PROPERTY
Grad RMS
SciTegic.value.DoubleValue
0.000000

@<SCITEGIC>MOL_PROPERTY
U
SciTegic.value.DoubleValue
46.486

@<SCITEGIC>MOL_PROPERTY
W
SciTegic.value.DoubleValue
-57.749

@<SCITEGIC>MOL_PROPERTY
W(PB)
SciTegic.value.DoubleValue
-59.685

@<SCITEGIC>MOL_PROPERTY
W(SA)
SciTegic.value.DoubleValue
1.936

@<SCITEGIC>MOL_PROPERTY
Valence
SciTegic.value.DoubleValue
1.806

@<SCITEGIC>MOL_PROPERTY
Coulomb
SciTegic.value.DoubleValue
44.248

@<SCITEGIC>MOL_PROPERTY
VdW
SciTegic.value.DoubleValue
0.433

@<SCITEGIC>MOL_PROPERTY
VdW6
SciTegic.value.DoubleValue
-4.089

@<SCITEGIC>MOL_PROPERTY
VdW12
SciTegic.value.DoubleValue
4.522

@<SCITEGIC>MOL_PROPERTY
Bond
SciTegic.value.DoubleValue
0.131

@<SCITEGIC>MOL_PROPERTY
Angle
SciTegic.value.DoubleValue
0.628

@<SCITEGIC>MOL_PROPERTY
Pdih
SciTegic.value.DoubleValue
1.047

@<SCITEGIC>MOL_PROPERTY
Idih
SciTegic.value.DoubleValue
0.000

@<SCITEGIC>MOL_PROPERTY
Tether
SciTegic.value.DoubleValue
0.000

@<TRIPOS>MOLECULE
guest-s11_confgen4.mol2 : confsearch ligand conformer 804
          20          19           1
SMALL
USER_CHARGES
 
@<TRIPOS>ATOM
       1    N1      19.555137   17.468816   20.329711 N.4        1 MOL1        -0.5919
       2    H1      19.144819   17.299040   19.405418 H          1 MOL1         0.3682
       3    H2      20.546756   17.677941   20.181736 H          1 MOL1         0.3682
       4    H3      19.505674   16.584052   20.844433 H          1 MOL1         0.3682
       5    C1      18.844387   18.589761   21.063524 C.3        1 MOL1         0.0252
       6    H4      17.789112   18.314960   21.144013 H          1 MOL1         0.0971
       7    H5      18.914270   19.493968   20.452813 H          1 MOL1         0.0971
       8    C2      19.406389   18.869909   22.471196 C.3        1 MOL1        -0.1369
       9    H6      18.753958   19.607095   22.955446 H          1 MOL1         0.0997
      10    H7      19.350950   17.955475   23.076527 H          1 MOL1         0.0997
      11    C3      20.862274   19.399567   22.439927 C.3        1 MOL1        -0.1329
      12    H8      20.905884   20.326683   21.851691 H          1 MOL1         0.0997
      13    H9      21.503925   18.674611   21.921920 H          1 MOL1         0.0997
      14    C4      21.456839   19.651922   23.846977 C.3        1 MOL1        -0.1305
      15    H10     21.428037   18.723784   24.434851 H          1 MOL1         0.0997
      16    H11     22.518848   19.913344   23.738642 H          1 MOL1         0.0997
      17    C5      20.744078   20.782304   24.624134 C.3        1 MOL1        -0.2320
      18    H12     19.708636   20.514588   24.867972 H          1 MOL1         0.1008
      19    H13     21.262967   20.983932   25.570204 H          1 MOL1         0.1008
      20    H14     20.731593   21.713998   24.043795 H          1 MOL1         0.1008
@<TRIPOS>BOND
    1     1     2    1
    2     1     3    1
    3     1     4    1
    4     1     5    1
    5     5     6    1
    6     5     7    1
    7     5     8    1
    8     8     9    1
    9     8    10    1
   10     8    11    1
   11    11    12    1
   12    11    13    1
   13    11    14    1
   14    14    15    1
   15    14    16    1
   16    14    17    1
   17    17    18    1
   18    17    19    1
   19    17    20    1
@<TRIPOS>SUBSTRUCTURE
       1 MOL1            1 RESIDUE      1      MOL     
@<SCITEGIC>MOL_PROPERTY
VConf Rank
SciTegic.value.IntegerValue
804

@<SCITEGIC>MOL_PROPERTY
Conf_Id
SciTegic.value.IntegerValue
33

@<SCITEGIC>MOL_PROPERTY
Delta U+W
SciTegic.value.DoubleValue
0.703

@<SCITEGIC>MOL_PROPERTY
U+W
SciTegic.value.DoubleValue
-11.075

@<SCITEGIC>MOL_PROPERTY
Grad RMS
SciTegic.value.DoubleValue
0.000000

@<SCITEGIC>MOL_PROPERTY
U
SciTegic.value.DoubleValue
47.080

@<SCITEGIC>MOL_PROPERTY
W
SciTegic.value.DoubleValue
-58.154

@<SCITEGIC>MOL_PROPERTY
W(PB)
SciTegic.value.DoubleValue
-60.053

@<SCITEGIC>MOL_PROPERTY
W(SA)
SciTegic.value.DoubleValue
1.899

@<SCITEGIC>MOL_PROPERTY
Valence
SciTegic.value.DoubleValue
1.943

@<SCITEGIC>MOL_PROPERTY
Coulomb
SciTegic.value.DoubleValue
44.572

@<SCITEGIC>MOL_PROPERTY
VdW
SciTegic.value.DoubleValue
0.565

@<SCITEGIC>MOL_PROPERTY
VdW6
SciTegic.value.DoubleValue
-4.575

@<SCITEGIC>MOL_PROPERTY
VdW12
SciTegic.value.DoubleValue
5.139

@<SCITEGIC>MOL_PROPERTY
Bond
SciTegic.value.DoubleValue
0.158

@<SCITEGIC>MOL_PROPERTY
Angle
SciTegic.value.DoubleValue
0.700

@<SCITEGIC>MOL_PROPERTY
Pdih
SciTegic.value.DoubleValue
1.085

@<SCITEGIC>MOL_PROPERTY
Idih
SciTegic.value.DoubleValue
0.000

@<SCITEGIC>MOL_PROPERTY
Tether
SciTegic.value.DoubleValue
0.000

@<TRIPOS>MOLECULE
guest-s11_confgen4.mol2 : confsearch ligand conformer 805
          20          19           1
SMALL
USER_CHARGES
 
@<TRIPOS>ATOM
       1    N1      22.709515   19.926527   21.794319 N.4        1 MOL1        -0.5919
       2    H1      23.605425   19.779514   21.317630 H          1 MOL1         0.3682
       3    H2      22.561172   20.939329   21.843512 H          1 MOL1         0.3682
       4    H3      22.824345   19.590369   22.754918 H          1 MOL1         0.3682
       5    C1      21.570780   19.222771   21.081457 C.3        1 MOL1         0.0252
       6    H4      21.801855   18.154790   21.043196 H          1 MOL1         0.0971
       7    H5      21.539401   19.600468   20.055806 H          1 MOL1         0.0971
       8    C2      20.194701   19.432299   21.743548 C.3        1 MOL1        -0.1369
       9    H6      19.973216   20.506474   21.796319 H          1 MOL1         0.0997
      10    H7      19.433832   18.986478   21.090915 H          1 MOL1         0.0997
      11    C3      20.107879   18.801349   23.156163 C.3        1 MOL1        -0.1329
      12    H8      20.894693   19.224527   23.794484 H          1 MOL1         0.0997
      13    H9      20.308332   17.722825   23.092344 H          1 MOL1         0.0997
      14    C4      18.744510   19.033209   23.852183 C.3        1 MOL1        -0.1305
      15    H10     18.807075   18.657106   24.882995 H          1 MOL1         0.0997
      16    H11     18.545588   20.111228   23.930739 H          1 MOL1         0.0997
      17    C5      17.562227   18.336532   23.140415 C.3        1 MOL1        -0.2320
      18    H12     17.750564   17.261680   23.021140 H          1 MOL1         0.1008
      19    H13     16.640330   18.452195   23.724945 H          1 MOL1         0.1008
      20    H14     17.378012   18.766065   22.148026 H          1 MOL1         0.1008
@<TRIPOS>BOND
    1     1     2    1
    2     1     3    1
    3     1     4    1
    4     1     5    1
    5     5     6    1
    6     5     7    1
    7     5     8    1
    8     8     9    1
    9     8    10    1
   10     8    11    1
   11    11    12    1
   12    11    13    1
   13    11    14    1
   14    14    15    1
   15    14    16    1
   16    14    17    1
   17    17    18    1
   18    17    19    1
   19    17    20    1
@<TRIPOS>SUBSTRUCTURE
       1 MOL1            1 RESIDUE      1      MOL     
@<SCITEGIC>MOL_PROPERTY
VConf Rank
SciTegic.value.IntegerValue
805

@<SCITEGIC>MOL_PROPERTY
Conf_Id
SciTegic.value.IntegerValue
24

@<SCITEGIC>MOL_PROPERTY
Delta U+W
SciTegic.value.DoubleValue
0.847

@<SCITEGIC>MOL_PROPERTY
U+W
SciTegic.value.DoubleValue
-10.931

@<SCITEGIC>MOL_PROPERTY
Grad RMS
SciTegic.value.DoubleValue
0.000000

@<SCITEGIC>MOL_PROPERTY
U
SciTegic.value.DoubleValue
47.080

@<SCITEGIC>MOL_PROPERTY
W
SciTegic.value.DoubleValue
-58.011

@<SCITEGIC>MOL_PROPERTY
W(PB)
SciTegic.value.DoubleValue
-59.914

@<SCITEGIC>MOL_PROPERTY
W(SA)
SciTegic.value.DoubleValue
1.903

@<SCITEGIC>MOL_PROPERTY
Valence
SciTegic.value.DoubleValue
1.943

@<SCITEGIC>MOL_PROPERTY
Coulomb
SciTegic.value.DoubleValue
44.572

@<SCITEGIC>MOL_PROPERTY
VdW
SciTegic.value.DoubleValue
0.565

@<SCITEGIC>MOL_PROPERTY
VdW6
SciTegic.value.DoubleValue
-4.575

@<SCITEGIC>MOL_PROPERTY
VdW12
SciTegic.value.DoubleValue
5.140

@<SCITEGIC>MOL_PROPERTY
Bond
SciTegic.value.DoubleValue
0.158

@<SCITEGIC>MOL_PROPERTY
Angle
SciTegic.value.DoubleValue
0.700

@<SCITEGIC>MOL_PROPERTY
Pdih
SciTegic.value.DoubleValue
1.085

@<SCITEGIC>MOL_PROPERTY
Idih
SciTegic.value.DoubleValue
0.000

@<SCITEGIC>MOL_PROPERTY
Tether
SciTegic.value.DoubleValue
0.000

@<TRIPOS>MOLECULE
guest-s11_confgen4.mol2 : confsearch ligand conformer 806
          20          19           1
SMALL
USER_CHARGES
 
@<TRIPOS>ATOM
       1    N1      18.613365   20.552345   24.340560 N.4        1 MOL1        -0.5919
       2    H1      18.748415   21.513203   24.672229 H          1 MOL1         0.3682
       3    H2      17.807976   20.566912   23.707033 H          1 MOL1         0.3682
       4    H3      18.345403   19.991818   25.155616 H          1 MOL1         0.3682
       5    C1      19.856356   20.010013   23.664412 C.3        1 MOL1         0.0252
       6    H4      20.677966   20.050575   24.384613 H          1 MOL1         0.0971
       7    H5      20.099081   20.670779   22.828077 H          1 MOL1         0.0971
       8    C2      19.686555   18.566922   23.153256 C.3        1 MOL1        -0.1369
       9    H6      19.402376   17.919579   23.993464 H          1 MOL1         0.0997
      10    H7      18.856116   18.523334   22.437067 H          1 MOL1         0.0997
      11    C3      20.976179   18.005262   22.504099 C.3        1 MOL1        -0.1329
      12    H8      20.788996   16.973992   22.174392 H          1 MOL1         0.0997
      13    H9      21.761373   17.939517   23.270023 H          1 MOL1         0.0997
      14    C4      21.514902   18.830158   21.307208 C.3        1 MOL1        -0.1305
      15    H10     21.808019   19.835172   21.640086 H          1 MOL1         0.0997
      16    H11     22.435109   18.354491   20.940001 H          1 MOL1         0.0997
      17    C5      20.511496   18.942292   20.136905 C.3        1 MOL1        -0.2320
      18    H12     20.973312   19.453208   19.282156 H          1 MOL1         0.1008
      19    H13     20.186531   17.949771   19.798860 H          1 MOL1         0.1008
      20    H14     19.621755   19.516947   20.422856 H          1 MOL1         0.1008
@<TRIPOS>BOND
    1     1     2    1
    2     1     3    1
    3     1     4    1
    4     1     5    1
    5     5     6    1
    6     5     7    1
    7     5     8    1
    8     8     9    1
    9     8    10    1
   10     8    11    1
   11    11    12    1
   12    11    13    1
   13    11    14    1
   14    14    15    1
   15    14    16    1
   16    14    17    1
   17    17    18    1
   18    17    19    1
   19    17    20    1
@<TRIPOS>SUBSTRUCTURE
       1 MOL1            1 RESIDUE      1      MOL     
@<SCITEGIC>MOL_PROPERTY
VConf Rank
SciTegic.value.IntegerValue
806

@<SCITEGIC>MOL_PROPERTY
Conf_Id
SciTegic.value.IntegerValue
64

@<SCITEGIC>MOL_PROPERTY
Delta U+W
SciTegic.value.DoubleValue
0.707

@<SCITEGIC>MOL_PROPERTY
U+W
SciTegic.value.DoubleValue
-11.070

@<SCITEGIC>MOL_PROPERTY
Grad RMS
SciTegic.value.DoubleValue
0.000000

@<SCITEGIC>MOL_PROPERTY
U
SciTegic.value.DoubleValue
47.077

@<SCITEGIC>MOL_PROPERTY
W
SciTegic.value.DoubleValue
-58.148

@<SCITEGIC>MOL_PROPERTY
W(PB)
SciTegic.value.DoubleValue
-60.054

@<SCITEGIC>MOL_PROPERTY
W(SA)
SciTegic.value.DoubleValue
1.906

@<SCITEGIC>MOL_PROPERTY
Valence
SciTegic.value.DoubleValue
2.039

@<SCITEGIC>MOL_PROPERTY
Coulomb
SciTegic.value.DoubleValue
44.655

@<SCITEGIC>MOL_PROPERTY
VdW
SciTegic.value.DoubleValue
0.383

@<SCITEGIC>MOL_PROPERTY
VdW6
SciTegic.value.DoubleValue
-4.912

@<SCITEGIC>MOL_PROPERTY
VdW12
SciTegic.value.DoubleValue
5.295

@<SCITEGIC>MOL_PROPERTY
Bond
SciTegic.value.DoubleValue
0.159

@<SCITEGIC>MOL_PROPERTY
Angle
SciTegic.value.DoubleValue
0.856

@<SCITEGIC>MOL_PROPERTY
Pdih
SciTegic.value.DoubleValue
1.024

@<SCITEGIC>MOL_PROPERTY
Idih
SciTegic.value.DoubleValue
0.000

@<SCITEGIC>MOL_PROPERTY
Tether
SciTegic.value.DoubleValue
0.000

@<TRIPOS>MOLECULE
guest-s11_confgen4.mol2 : confsearch ligand conformer 807
          20          19           1
SMALL
USER_CHARGES
 
@<TRIPOS>ATOM
       1    N1      22.713436   20.041105   21.971215 N.4        1 MOL1        -0.5919
       2    H1      23.050977   20.725231   22.655572 H          1 MOL1         0.3682
       3    H2      23.141676   19.140893   22.208811 H          1 MOL1         0.3682
       4    H3      23.093015   20.319962   21.060366 H          1 MOL1         0.3682
       5    C1      21.200353   19.960725   21.950091 C.3        1 MOL1         0.0252
       6    H4      20.913143   19.238903   21.181021 H          1 MOL1         0.0971
       7    H5      20.813652   20.942105   21.662455 H          1 MOL1         0.0971
       8    C2      20.597480   19.543253   23.304670 C.3        1 MOL1        -0.1369
       9    H6      20.992076   18.562301   23.598750 H          1 MOL1         0.0997
      10    H7      20.925971   20.251083   24.077219 H          1 MOL1         0.0997
      11    C3      19.048811   19.507566   23.286110 C.3        1 MOL1        -0.1329
      12    H8      18.670780   20.524911   23.114077 H          1 MOL1         0.0997
      13    H9      18.687272   19.215530   24.281734 H          1 MOL1         0.0997
      14    C4      18.432204   18.560401   22.225027 C.3        1 MOL1        -0.1305
      15    H10     17.337146   18.628714   22.288780 H          1 MOL1         0.0997
      16    H11     18.696373   18.899585   21.214114 H          1 MOL1         0.0997
      17    C5      18.849878   17.082977   22.403281 C.3        1 MOL1        -0.2320
      18    H12     18.614975   16.725389   23.414185 H          1 MOL1         0.1008
      19    H13     18.315657   16.443536   21.688698 H          1 MOL1         0.1008
      20    H14     19.924342   16.944463   22.230145 H          1 MOL1         0.1008
@<TRIPOS>BOND
    1     1     2    1
    2     1     3    1
    3     1     4    1
    4     1     5    1
    5     5     6    1
    6     5     7    1
    7     5     8    1
    8     8     9    1
    9     8    10    1
   10     8    11    1
   11    11    12    1
   12    11    13    1
   13    11    14    1
   14    14    15    1
   15    14    16    1
   16    14    17    1
   17    17    18    1
   18    17    19    1
   19    17    20    1
@<TRIPOS>SUBSTRUCTURE
       1 MOL1            1 RESIDUE      1      MOL     
@<SCITEGIC>MOL_PROPERTY
VConf Rank
SciTegic.value.IntegerValue
807

@<SCITEGIC>MOL_PROPERTY
Conf_Id
SciTegic.value.IntegerValue
22

@<SCITEGIC>MOL_PROPERTY
Delta U+W
SciTegic.value.DoubleValue
0.731

@<SCITEGIC>MOL_PROPERTY
U+W
SciTegic.value.DoubleValue
-11.047

@<SCITEGIC>MOL_PROPERTY
Grad RMS
SciTegic.value.DoubleValue
0.000000

@<SCITEGIC>MOL_PROPERTY
U
SciTegic.value.DoubleValue
47.078

@<SCITEGIC>MOL_PROPERTY
W
SciTegic.value.DoubleValue
-58.125

@<SCITEGIC>MOL_PROPERTY
W(PB)
SciTegic.value.DoubleValue
-60.031

@<SCITEGIC>MOL_PROPERTY
W(SA)
SciTegic.value.DoubleValue
1.906

@<SCITEGIC>MOL_PROPERTY
Valence
SciTegic.value.DoubleValue
2.039

@<SCITEGIC>MOL_PROPERTY
Coulomb
SciTegic.value.DoubleValue
44.655

@<SCITEGIC>MOL_PROPERTY
VdW
SciTegic.value.DoubleValue
0.383

@<SCITEGIC>MOL_PROPERTY
VdW6
SciTegic.value.DoubleValue
-4.913

@<SCITEGIC>MOL_PROPERTY
VdW12
SciTegic.value.DoubleValue
5.296

@<SCITEGIC>MOL_PROPERTY
Bond
SciTegic.value.DoubleValue
0.159

@<SCITEGIC>MOL_PROPERTY
Angle
SciTegic.value.DoubleValue
0.856

@<SCITEGIC>MOL_PROPERTY
Pdih
SciTegic.value.DoubleValue
1.024

@<SCITEGIC>MOL_PROPERTY
Idih
SciTegic.value.DoubleValue
0.000

@<SCITEGIC>MOL_PROPERTY
Tether
SciTegic.value.DoubleValue
0.000

@<TRIPOS>MOLECULE
guest-s11_confgen4.mol2 : confsearch ligand conformer 808
          20          19           1
SMALL
USER_CHARGES
 
@<TRIPOS>ATOM
       1    N1      17.595172   19.828547   23.228558 N.4        1 MOL1        -0.5919
       2    H1      17.057307   19.477651   22.429867 H          1 MOL1         0.3682
       3    H2      17.278383   19.312076   24.055126 H          1 MOL1         0.3682
       4    H3      17.319765   20.806697   23.365915 H          1 MOL1         0.3682
       5    C1      19.088428   19.688748   23.011183 C.3        1 MOL1         0.0252
       6    H4      19.597930   20.105148   23.884346 H          1 MOL1         0.0971
       7    H5      19.353443   20.286389   22.136049 H          1 MOL1         0.0971
       8    C2      19.533766   18.231330   22.796055 C.3        1 MOL1        -0.1369
       9    H6      19.155817   17.620451   23.626659 H          1 MOL1         0.0997
      10    H7      19.066506   17.837171   21.883864 H          1 MOL1         0.0997
      11    C3      21.070679   18.049705   22.713448 C.3        1 MOL1        -0.1329
      12    H8      21.272432   16.971207   22.652705 H          1 MOL1         0.0997
      13    H9      21.542820   18.387585   23.646330 H          1 MOL1         0.0997
      14    C4      21.744443   18.732235   21.494684 C.3        1 MOL1        -0.1305
      15    H10     22.650024   18.164350   21.238691 H          1 MOL1         0.0997
      16    H11     21.090767   18.670381   20.613421 H          1 MOL1         0.0997
      17    C5      22.163351   20.199261   21.750002 C.3        1 MOL1        -0.2320
      18    H12     21.302593   20.853331   21.923676 H          1 MOL1         0.1008
      19    H13     22.828487   20.273080   22.620145 H          1 MOL1         0.1008
      20    H14     22.706495   20.597268   20.883071 H          1 MOL1         0.1008
@<TRIPOS>BOND
    1     1     2    1
    2     1     3    1
    3     1     4    1
    4     1     5    1
    5     5     6    1
    6     5     7    1
    7     5     8    1
    8     8     9    1
    9     8    10    1
   10     8    11    1
   11    11    12    1
   12    11    13    1
   13    11    14    1
   14    14    15    1
   15    14    16    1
   16    14    17    1
   17    17    18    1
   18    17    19    1
   19    17    20    1
@<TRIPOS>SUBSTRUCTURE
       1 MOL1            1 RESIDUE      1      MOL     
@<SCITEGIC>MOL_PROPERTY
VConf Rank
SciTegic.value.IntegerValue
808

@<SCITEGIC>MOL_PROPERTY
Conf_Id
SciTegic.value.IntegerValue
61

@<SCITEGIC>MOL_PROPERTY
Delta U+W
SciTegic.value.DoubleValue
2.669

@<SCITEGIC>MOL_PROPERTY
U+W
SciTegic.value.DoubleValue
-9.108

@<SCITEGIC>MOL_PROPERTY
Grad RMS
SciTegic.value.DoubleValue
0.000000

@<SCITEGIC>MOL_PROPERTY
U
SciTegic.value.DoubleValue
48.916

@<SCITEGIC>MOL_PROPERTY
W
SciTegic.value.DoubleValue
-58.025

@<SCITEGIC>MOL_PROPERTY
W(PB)
SciTegic.value.DoubleValue
-59.935

@<SCITEGIC>MOL_PROPERTY
W(SA)
SciTegic.value.DoubleValue
1.911

@<SCITEGIC>MOL_PROPERTY
Valence
SciTegic.value.DoubleValue
3.785

@<SCITEGIC>MOL_PROPERTY
Coulomb
SciTegic.value.DoubleValue
44.716

@<SCITEGIC>MOL_PROPERTY
VdW
SciTegic.value.DoubleValue
0.415

@<SCITEGIC>MOL_PROPERTY
VdW6
SciTegic.value.DoubleValue
-4.836

@<SCITEGIC>MOL_PROPERTY
VdW12
SciTegic.value.DoubleValue
5.251

@<SCITEGIC>MOL_PROPERTY
Bond
SciTegic.value.DoubleValue
0.175

@<SCITEGIC>MOL_PROPERTY
Angle
SciTegic.value.DoubleValue
1.195

@<SCITEGIC>MOL_PROPERTY
Pdih
SciTegic.value.DoubleValue
2.415

@<SCITEGIC>MOL_PROPERTY
Idih
SciTegic.value.DoubleValue
0.000

@<SCITEGIC>MOL_PROPERTY
Tether
SciTegic.value.DoubleValue
0.000

@<TRIPOS>MOLECULE
guest-s11_confgen4.mol2 : confsearch ligand conformer 809
          20          19           1
SMALL
USER_CHARGES
 
@<TRIPOS>ATOM
       1    N1      18.745988   17.418383   21.599966 N.4        1 MOL1        -0.5919
       2    H1      17.804998   17.220575   21.243522 H          1 MOL1         0.3682
       3    H2      19.231445   16.518589   21.670697 H          1 MOL1         0.3682
       4    H3      18.637335   17.778600   22.551525 H          1 MOL1         0.3682
       5    C1      19.491888   18.391338   20.706902 C.3        1 MOL1         0.0252
       6    H4      18.902559   19.308237   20.621322 H          1 MOL1         0.0971
       7    H5      19.549472   17.933109   19.715806 H          1 MOL1         0.0971
       8    C2      20.919438   18.728830   21.186147 C.3        1 MOL1        -0.1369
       9    H6      21.425909   17.817779   21.531527 H          1 MOL1         0.0997
      10    H7      21.489830   19.078031   20.315181 H          1 MOL1         0.0997
      11    C3      20.990702   19.832040   22.273170 C.3        1 MOL1        -0.1329
      12    H8      20.531596   20.753868   21.889867 H          1 MOL1         0.0997
      13    H9      22.048936   20.069060   22.450484 H          1 MOL1         0.0997
      14    C4      20.332554   19.449357   23.619537 C.3        1 MOL1        -0.1305
      15    H10     19.246637   19.355155   23.493992 H          1 MOL1         0.0997
      16    H11     20.709558   18.473301   23.955879 H          1 MOL1         0.0997
      17    C5      20.611232   20.506661   24.709245 C.3        1 MOL1        -0.2320
      18    H12     20.129747   20.225338   25.654804 H          1 MOL1         0.1008
      19    H13     21.688171   20.606601   24.897492 H          1 MOL1         0.1008
      20    H14     20.223301   21.490178   24.413483 H          1 MOL1         0.1008
@<TRIPOS>BOND
    1     1     2    1
    2     1     3    1
    3     1     4    1
    4     1     5    1
    5     5     6    1
    6     5     7    1
    7     5     8    1
    8     8     9    1
    9     8    10    1
   10     8    11    1
   11    11    12    1
   12    11    13    1
   13    11    14    1
   14    14    15    1
   15    14    16    1
   16    14    17    1
   17    17    18    1
   18    17    19    1
   19    17    20    1
@<TRIPOS>SUBSTRUCTURE
       1 MOL1            1 RESIDUE      1      MOL     
@<SCITEGIC>MOL_PROPERTY
VConf Rank
SciTegic.value.IntegerValue
809

@<SCITEGIC>MOL_PROPERTY
Conf_Id
SciTegic.value.IntegerValue
69

@<SCITEGIC>MOL_PROPERTY
Delta U+W
SciTegic.value.DoubleValue
2.811

@<SCITEGIC>MOL_PROPERTY
U+W
SciTegic.value.DoubleValue
-8.967

@<SCITEGIC>MOL_PROPERTY
Grad RMS
SciTegic.value.DoubleValue
0.000000

@<SCITEGIC>MOL_PROPERTY
U
SciTegic.value.DoubleValue
49.216

@<SCITEGIC>MOL_PROPERTY
W
SciTegic.value.DoubleValue
-58.183

@<SCITEGIC>MOL_PROPERTY
W(PB)
SciTegic.value.DoubleValue
-60.064

@<SCITEGIC>MOL_PROPERTY
W(SA)
SciTegic.value.DoubleValue
1.881

@<SCITEGIC>MOL_PROPERTY
Valence
SciTegic.value.DoubleValue
2.929

@<SCITEGIC>MOL_PROPERTY
Coulomb
SciTegic.value.DoubleValue
46.006

@<SCITEGIC>MOL_PROPERTY
VdW
SciTegic.value.DoubleValue
0.281

@<SCITEGIC>MOL_PROPERTY
VdW6
SciTegic.value.DoubleValue
-4.909

@<SCITEGIC>MOL_PROPERTY
VdW12
SciTegic.value.DoubleValue
5.190

@<SCITEGIC>MOL_PROPERTY
Bond
SciTegic.value.DoubleValue
0.156

@<SCITEGIC>MOL_PROPERTY
Angle
SciTegic.value.DoubleValue
0.974

@<SCITEGIC>MOL_PROPERTY
Pdih
SciTegic.value.DoubleValue
1.799

@<SCITEGIC>MOL_PROPERTY
Idih
SciTegic.value.DoubleValue
0.000

@<SCITEGIC>MOL_PROPERTY
Tether
SciTegic.value.DoubleValue
0.000

@<TRIPOS>MOLECULE
guest-s11_confgen4.mol2 : confsearch ligand conformer 810
          20          19           1
SMALL
USER_CHARGES
 
@<TRIPOS>ATOM
       1    N1      18.840035   17.911874   20.957921 N.4        1 MOL1        -0.5919
       2    H1      19.725984   17.567331   21.336621 H          1 MOL1         0.3682
       3    H2      18.088238   17.455571   21.484127 H          1 MOL1         0.3682
       4    H3      18.773569   17.573825   19.992029 H          1 MOL1         0.3682
       5    C1      18.741194   19.423599   21.031990 C.3        1 MOL1         0.0252
       6    H4      17.776702   19.700798   20.597856 H          1 MOL1         0.0971
       7    H5      19.528758   19.855531   20.408679 H          1 MOL1         0.0971
       8    C2      18.830314   19.997843   22.461598 C.3        1 MOL1        -0.1369
       9    H6      18.355329   20.987892   22.453561 H          1 MOL1         0.0997
      10    H7      18.235402   19.384646   23.151441 H          1 MOL1         0.0997
      11    C3      20.274564   20.168998   22.998831 C.3        1 MOL1        -0.1329
      12    H8      20.220059   20.687934   23.965895 H          1 MOL1         0.0997
      13    H9      20.838490   20.832007   22.328106 H          1 MOL1         0.0997
      14    C4      21.050388   18.844143   23.186367 C.3        1 MOL1        -0.1305
      15    H10     20.444393   18.135120   23.767743 H          1 MOL1         0.0997
      16    H11     21.247912   18.382631   22.210743 H          1 MOL1         0.0997
      17    C5      22.398012   19.071364   23.904209 C.3        1 MOL1        -0.2320
      18    H12     22.246600   19.496912   24.904812 H          1 MOL1         0.1008
      19    H13     22.939998   18.123883   24.020753 H          1 MOL1         0.1008
      20    H14     23.038133   19.757484   23.334337 H          1 MOL1         0.1008
@<TRIPOS>BOND
    1     1     2    1
    2     1     3    1
    3     1     4    1
    4     1     5    1
    5     5     6    1
    6     5     7    1
    7     5     8    1
    8     8     9    1
    9     8    10    1
   10     8    11    1
   11    11    12    1
   12    11    13    1
   13    11    14    1
   14    14    15    1
   15    14    16    1
   16    14    17    1
   17    17    18    1
   18    17    19    1
   19    17    20    1
@<TRIPOS>SUBSTRUCTURE
       1 MOL1            1 RESIDUE      1      MOL     
@<SCITEGIC>MOL_PROPERTY
VConf Rank
SciTegic.value.IntegerValue
810

@<SCITEGIC>MOL_PROPERTY
Conf_Id
SciTegic.value.IntegerValue
26

@<SCITEGIC>MOL_PROPERTY
Delta U+W
SciTegic.value.DoubleValue
2.809

@<SCITEGIC>MOL_PROPERTY
U+W
SciTegic.value.DoubleValue
-8.969

@<SCITEGIC>MOL_PROPERTY
Grad RMS
SciTegic.value.DoubleValue
0.000000

@<SCITEGIC>MOL_PROPERTY
U
SciTegic.value.DoubleValue
49.216

@<SCITEGIC>MOL_PROPERTY
W
SciTegic.value.DoubleValue
-58.185

@<SCITEGIC>MOL_PROPERTY
W(PB)
SciTegic.value.DoubleValue
-60.088

@<SCITEGIC>MOL_PROPERTY
W(SA)
SciTegic.value.DoubleValue
1.903

@<SCITEGIC>MOL_PROPERTY
Valence
SciTegic.value.DoubleValue
2.929

@<SCITEGIC>MOL_PROPERTY
Coulomb
SciTegic.value.DoubleValue
46.006

@<SCITEGIC>MOL_PROPERTY
VdW
SciTegic.value.DoubleValue
0.281

@<SCITEGIC>MOL_PROPERTY
VdW6
SciTegic.value.DoubleValue
-4.909

@<SCITEGIC>MOL_PROPERTY
VdW12
SciTegic.value.DoubleValue
5.190

@<SCITEGIC>MOL_PROPERTY
Bond
SciTegic.value.DoubleValue
0.156

@<SCITEGIC>MOL_PROPERTY
Angle
SciTegic.value.DoubleValue
0.974

@<SCITEGIC>MOL_PROPERTY
Pdih
SciTegic.value.DoubleValue
1.799

@<SCITEGIC>MOL_PROPERTY
Idih
SciTegic.value.DoubleValue
0.000

@<SCITEGIC>MOL_PROPERTY
Tether
SciTegic.value.DoubleValue
0.000

@<TRIPOS>MOLECULE
guest-s11_confgen4.mol2 : confsearch ligand conformer 811
          20          19           1
SMALL
USER_CHARGES
 
@<TRIPOS>ATOM
       1    N1      19.512317   21.339711   23.347968 N.4        1 MOL1        -0.5919
       2    H1      20.398528   21.459918   22.848850 H          1 MOL1         0.3682
       3    H2      18.801429   21.870101   22.834779 H          1 MOL1         0.3682
       4    H3      19.618739   21.790764   24.262591 H          1 MOL1         0.3682
       5    C1      19.137308   19.876611   23.481025 C.3        1 MOL1         0.0252
       6    H4      18.203567   19.822325   24.047321 H          1 MOL1         0.0971
       7    H5      19.916323   19.377613   24.063321 H          1 MOL1         0.0971
       8    C2      18.958135   19.157411   22.128642 C.3        1 MOL1        -0.1369
       9    H6      18.614825   18.131960   22.316042 H          1 MOL1         0.0997
      10    H7      18.150893   19.645264   21.566505 H          1 MOL1         0.0997
      11    C3      20.240809   19.125905   21.256432 C.3        1 MOL1        -0.1329
      12    H8      20.487271   20.146920   20.935507 H          1 MOL1         0.0997
      13    H9      20.027434   18.568347   20.334044 H          1 MOL1         0.0997
      14    C4      21.481399   18.503340   21.946634 C.3        1 MOL1        -0.1305
      15    H10     22.331051   18.552443   21.251269 H          1 MOL1         0.0997
      16    H11     21.771732   19.102874   22.819996 H          1 MOL1         0.0997
      17    C5      21.271985   17.032633   22.373258 C.3        1 MOL1        -0.2320
      18    H12     20.964468   16.414059   21.520168 H          1 MOL1         0.1008
      19    H13     22.203359   16.612162   22.774046 H          1 MOL1         0.1008
      20    H14     20.507299   16.945035   23.155041 H          1 MOL1         0.1008
@<TRIPOS>BOND
    1     1     2    1
    2     1     3    1
    3     1     4    1
    4     1     5    1
    5     5     6    1
    6     5     7    1
    7     5     8    1
    8     8     9    1
    9     8    10    1
   10     8    11    1
   11    11    12    1
   12    11    13    1
   13    11    14    1
   14    14    15    1
   15    14    16    1
   16    14    17    1
   17    17    18    1
   18    17    19    1
   19    17    20    1
@<TRIPOS>SUBSTRUCTURE
       1 MOL1            1 RESIDUE      1      MOL     
@<SCITEGIC>MOL_PROPERTY
VConf Rank
SciTegic.value.IntegerValue
811

@<SCITEGIC>MOL_PROPERTY
Conf_Id
SciTegic.value.IntegerValue
2

@<SCITEGIC>MOL_PROPERTY
Delta U+W
SciTegic.value.DoubleValue
0.994

@<SCITEGIC>MOL_PROPERTY
U+W
SciTegic.value.DoubleValue
-10.784

@<SCITEGIC>MOL_PROPERTY
Grad RMS
SciTegic.value.DoubleValue
0.000000

@<SCITEGIC>MOL_PROPERTY
U
SciTegic.value.DoubleValue
47.562

@<SCITEGIC>MOL_PROPERTY
W
SciTegic.value.DoubleValue
-58.346

@<SCITEGIC>MOL_PROPERTY
W(PB)
SciTegic.value.DoubleValue
-60.221

@<SCITEGIC>MOL_PROPERTY
W(SA)
SciTegic.value.DoubleValue
1.875

@<SCITEGIC>MOL_PROPERTY
Valence
SciTegic.value.DoubleValue
2.149

@<SCITEGIC>MOL_PROPERTY
Coulomb
SciTegic.value.DoubleValue
45.034

@<SCITEGIC>MOL_PROPERTY
VdW
SciTegic.value.DoubleValue
0.378

@<SCITEGIC>MOL_PROPERTY
VdW6
SciTegic.value.DoubleValue
-5.599

@<SCITEGIC>MOL_PROPERTY
VdW12
SciTegic.value.DoubleValue
5.977

@<SCITEGIC>MOL_PROPERTY
Bond
SciTegic.value.DoubleValue
0.185

@<SCITEGIC>MOL_PROPERTY
Angle
SciTegic.value.DoubleValue
0.935

@<SCITEGIC>MOL_PROPERTY
Pdih
SciTegic.value.DoubleValue
1.028

@<SCITEGIC>MOL_PROPERTY
Idih
SciTegic.value.DoubleValue
0.000

@<SCITEGIC>MOL_PROPERTY
Tether
SciTegic.value.DoubleValue
0.000

@<TRIPOS>MOLECULE
guest-s11_confgen4.mol2 : confsearch ligand conformer 812
          20          19           1
SMALL
USER_CHARGES
 
@<TRIPOS>ATOM
       1    N1      21.511432   20.118799   24.191787 N.4        1 MOL1        -0.5919
       2    H1      22.529675   20.046780   24.102158 H          1 MOL1         0.3682
       3    H2      21.204135   20.864871   23.561005 H          1 MOL1         0.3682
       4    H3      21.317599   20.434498   25.147858 H          1 MOL1         0.3682
       5    C1      20.823774   18.803446   23.882000 C.3        1 MOL1         0.0252
       6    H4      19.748933   18.939211   24.027661 H          1 MOL1         0.0971
       7    H5      21.173804   18.065393   24.608819 H          1 MOL1         0.0971
       8    C2      21.093429   18.284251   22.455112 C.3        1 MOL1        -0.1369
       9    H6      22.171806   18.119116   22.330725 H          1 MOL1         0.0997
      10    H7      20.624883   17.298130   22.343030 H          1 MOL1         0.0997
      11    C3      20.589277   19.230746   21.333965 C.3        1 MOL1        -0.1329
      12    H8      20.793757   18.765289   20.359934 H          1 MOL1         0.0997
      13    H9      21.177872   20.157858   21.349032 H          1 MOL1         0.0997
      14    C4      19.083624   19.590592   21.414937 C.3        1 MOL1        -0.1305
      15    H10     18.873969   20.143957   22.340317 H          1 MOL1         0.0997
      16    H11     18.842513   20.277539   20.591640 H          1 MOL1         0.0997
      17    C5      18.153406   18.359600   21.324420 C.3        1 MOL1        -0.2320
      18    H12     18.277032   17.696856   22.189920 H          1 MOL1         0.1008
      19    H13     17.101915   18.673411   21.296602 H          1 MOL1         0.1008
      20    H14     18.354373   17.778932   20.414806 H          1 MOL1         0.1008
@<TRIPOS>BOND
    1     1     2    1
    2     1     3    1
    3     1     4    1
    4     1     5    1
    5     5     6    1
    6     5     7    1
    7     5     8    1
    8     8     9    1
    9     8    10    1
   10     8    11    1
   11    11    12    1
   12    11    13    1
   13    11    14    1
   14    14    15    1
   15    14    16    1
   16    14    17    1
   17    17    18    1
   18    17    19    1
   19    17    20    1
@<TRIPOS>SUBSTRUCTURE
       1 MOL1            1 RESIDUE      1      MOL     
@<SCITEGIC>MOL_PROPERTY
VConf Rank
SciTegic.value.IntegerValue
812

@<SCITEGIC>MOL_PROPERTY
Conf_Id
SciTegic.value.IntegerValue
1

@<SCITEGIC>MOL_PROPERTY
Delta U+W
SciTegic.value.DoubleValue
1.032

@<SCITEGIC>MOL_PROPERTY
U+W
SciTegic.value.DoubleValue
-10.746

@<SCITEGIC>MOL_PROPERTY
Grad RMS
SciTegic.value.DoubleValue
0.000000

@<SCITEGIC>MOL_PROPERTY
U
SciTegic.value.DoubleValue
47.562

@<SCITEGIC>MOL_PROPERTY
W
SciTegic.value.DoubleValue
-58.308

@<SCITEGIC>MOL_PROPERTY
W(PB)
SciTegic.value.DoubleValue
-60.184

@<SCITEGIC>MOL_PROPERTY
W(SA)
SciTegic.value.DoubleValue
1.877

@<SCITEGIC>MOL_PROPERTY
Valence
SciTegic.value.DoubleValue
2.149

@<SCITEGIC>MOL_PROPERTY
Coulomb
SciTegic.value.DoubleValue
45.035

@<SCITEGIC>MOL_PROPERTY
VdW
SciTegic.value.DoubleValue
0.378

@<SCITEGIC>MOL_PROPERTY
VdW6
SciTegic.value.DoubleValue
-5.599

@<SCITEGIC>MOL_PROPERTY
VdW12
SciTegic.value.DoubleValue
5.978

@<SCITEGIC>MOL_PROPERTY
Bond
SciTegic.value.DoubleValue
0.185

@<SCITEGIC>MOL_PROPERTY
Angle
SciTegic.value.DoubleValue
0.935

@<SCITEGIC>MOL_PROPERTY
Pdih
SciTegic.value.DoubleValue
1.028

@<SCITEGIC>MOL_PROPERTY
Idih
SciTegic.value.DoubleValue
0.000

@<SCITEGIC>MOL_PROPERTY
Tether
SciTegic.value.DoubleValue
0.000

@<TRIPOS>MOLECULE
guest-s11_confgen4.mol2 : confsearch ligand conformer 813
          20          19           1
SMALL
USER_CHARGES
 
@<TRIPOS>ATOM
       1    N1      22.310548   19.065301   23.557546 N.4        1 MOL1        -0.5919
       2    H1      22.799081   19.949338   23.730475 H          1 MOL1         0.3682
       3    H2      21.581264   18.977707   24.271099 H          1 MOL1         0.3682
       4    H3      22.986618   18.313178   23.726622 H          1 MOL1         0.3682
       5    C1      21.737238   19.002188   22.155017 C.3        1 MOL1         0.0252
       6    H4      21.261312   18.028349   22.029905 H          1 MOL1         0.0971
       7    H5      22.575180   19.059113   21.454919 H          1 MOL1         0.0971
       8    C2      20.736357   20.134027   21.838959 C.3        1 MOL1        -0.1369
       9    H6      21.249901   21.093441   21.985985 H          1 MOL1         0.0997
      10    H7      20.469258   20.096494   20.774595 H          1 MOL1         0.0997
      11    C3      19.444951   20.118750   22.700561 C.3        1 MOL1        -0.1329
      12    H8      19.031915   21.136984   22.705644 H          1 MOL1         0.0997
      13    H9      19.681166   19.894367   23.748692 H          1 MOL1         0.0997
      14    C4      18.328850   19.169074   22.194138 C.3        1 MOL1        -0.1305
      15    H10     17.440673   19.314383   22.824990 H          1 MOL1         0.0997
      16    H11     18.028380   19.459082   21.177578 H          1 MOL1         0.0997
      17    C5      18.702557   17.670416   22.211402 C.3        1 MOL1        -0.2320
      18    H12     19.115968   17.373350   23.183824 H          1 MOL1         0.1008
      19    H13     17.814641   17.053353   22.022282 H          1 MOL1         0.1008
      20    H14     19.433432   17.431867   21.429756 H          1 MOL1         0.1008
@<TRIPOS>BOND
    1     1     2    1
    2     1     3    1
    3     1     4    1
    4     1     5    1
    5     5     6    1
    6     5     7    1
    7     5     8    1
    8     8     9    1
    9     8    10    1
   10     8    11    1
   11    11    12    1
   12    11    13    1
   13    11    14    1
   14    14    15    1
   15    14    16    1
   16    14    17    1
   17    17    18    1
   18    17    19    1
   19    17    20    1
@<TRIPOS>SUBSTRUCTURE
       1 MOL1            1 RESIDUE      1      MOL     
@<SCITEGIC>MOL_PROPERTY
VConf Rank
SciTegic.value.IntegerValue
813

@<SCITEGIC>MOL_PROPERTY
Conf_Id
SciTegic.value.IntegerValue
80

@<SCITEGIC>MOL_PROPERTY
Delta U+W
SciTegic.value.DoubleValue
2.920

@<SCITEGIC>MOL_PROPERTY
U+W
SciTegic.value.DoubleValue
-8.857

@<SCITEGIC>MOL_PROPERTY
Grad RMS
SciTegic.value.DoubleValue
0.000000

@<SCITEGIC>MOL_PROPERTY
U
SciTegic.value.DoubleValue
49.434

@<SCITEGIC>MOL_PROPERTY
W
SciTegic.value.DoubleValue
-58.292

@<SCITEGIC>MOL_PROPERTY
W(PB)
SciTegic.value.DoubleValue
-60.170

@<SCITEGIC>MOL_PROPERTY
W(SA)
SciTegic.value.DoubleValue
1.879

@<SCITEGIC>MOL_PROPERTY
Valence
SciTegic.value.DoubleValue
3.798

@<SCITEGIC>MOL_PROPERTY
Coulomb
SciTegic.value.DoubleValue
45.253

@<SCITEGIC>MOL_PROPERTY
VdW
SciTegic.value.DoubleValue
0.384

@<SCITEGIC>MOL_PROPERTY
VdW6
SciTegic.value.DoubleValue
-5.595

@<SCITEGIC>MOL_PROPERTY
VdW12
SciTegic.value.DoubleValue
5.979

@<SCITEGIC>MOL_PROPERTY
Bond
SciTegic.value.DoubleValue
0.198

@<SCITEGIC>MOL_PROPERTY
Angle
SciTegic.value.DoubleValue
1.368

@<SCITEGIC>MOL_PROPERTY
Pdih
SciTegic.value.DoubleValue
2.231

@<SCITEGIC>MOL_PROPERTY
Idih
SciTegic.value.DoubleValue
0.000

@<SCITEGIC>MOL_PROPERTY
Tether
SciTegic.value.DoubleValue
0.000

@<TRIPOS>MOLECULE
guest-s11_confgen4.mol2 : confsearch ligand conformer 814
          20          19           1
SMALL
USER_CHARGES
 
@<TRIPOS>ATOM
       1    N1      18.000207   18.487489   22.823344 N.4        1 MOL1        -0.5919
       2    H1      17.259044   18.875337   22.231449 H          1 MOL1         0.3682
       3    H2      17.598768   17.681501   23.313830 H          1 MOL1         0.3682
       4    H3      18.219442   19.191221   23.534248 H          1 MOL1         0.3682
       5    C1      19.224325   18.102272   22.015320 C.3        1 MOL1         0.0252
       6    H4      18.921166   17.322126   21.311764 H          1 MOL1         0.0971
       7    H5      19.956562   17.670685   22.699481 H          1 MOL1         0.0971
       8    C2      19.848412   19.276058   21.230802 C.3        1 MOL1        -0.1369
       9    H6      20.641755   18.893999   20.574863 H          1 MOL1         0.0997
      10    H7      19.079038   19.686814   20.563596 H          1 MOL1         0.0997
      11    C3      20.410484   20.422246   22.114348 C.3        1 MOL1        -0.1329
      12    H8      19.727866   20.640971   22.945560 H          1 MOL1         0.0997
      13    H9      20.431894   21.336705   21.505472 H          1 MOL1         0.0997
      14    C4      21.845623   20.191920   22.654133 C.3        1 MOL1        -0.1305
      15    H10     22.542577   20.068761   21.813378 H          1 MOL1         0.0997
      16    H11     22.165390   21.101844   23.181138 H          1 MOL1         0.0997
      17    C5      21.985837   18.992612   23.617423 C.3        1 MOL1        -0.2320
      18    H12     21.899071   18.038994   23.083442 H          1 MOL1         0.1008
      19    H13     22.971686   19.003816   24.100025 H          1 MOL1         0.1008
      20    H14     21.225382   19.024877   24.408264 H          1 MOL1         0.1008
@<TRIPOS>BOND
    1     1     2    1
    2     1     3    1
    3     1     4    1
    4     1     5    1
    5     5     6    1
    6     5     7    1
    7     5     8    1
    8     8     9    1
    9     8    10    1
   10     8    11    1
   11    11    12    1
   12    11    13    1
   13    11    14    1
   14    14    15    1
   15    14    16    1
   16    14    17    1
   17    17    18    1
   18    17    19    1
   19    17    20    1
@<TRIPOS>SUBSTRUCTURE
       1 MOL1            1 RESIDUE      1      MOL     
@<SCITEGIC>MOL_PROPERTY
VConf Rank
SciTegic.value.IntegerValue
814

@<SCITEGIC>MOL_PROPERTY
Conf_Id
SciTegic.value.IntegerValue
65

@<SCITEGIC>MOL_PROPERTY
Delta U+W
SciTegic.value.DoubleValue
2.949

@<SCITEGIC>MOL_PROPERTY
U+W
SciTegic.value.DoubleValue
-8.829

@<SCITEGIC>MOL_PROPERTY
Grad RMS
SciTegic.value.DoubleValue
0.000000

@<SCITEGIC>MOL_PROPERTY
U
SciTegic.value.DoubleValue
49.435

@<SCITEGIC>MOL_PROPERTY
W
SciTegic.value.DoubleValue
-58.263

@<SCITEGIC>MOL_PROPERTY
W(PB)
SciTegic.value.DoubleValue
-60.125

@<SCITEGIC>MOL_PROPERTY
W(SA)
SciTegic.value.DoubleValue
1.862

@<SCITEGIC>MOL_PROPERTY
Valence
SciTegic.value.DoubleValue
3.797

@<SCITEGIC>MOL_PROPERTY
Coulomb
SciTegic.value.DoubleValue
45.253

@<SCITEGIC>MOL_PROPERTY
VdW
SciTegic.value.DoubleValue
0.384

@<SCITEGIC>MOL_PROPERTY
VdW6
SciTegic.value.DoubleValue
-5.596

@<SCITEGIC>MOL_PROPERTY
VdW12
SciTegic.value.DoubleValue
5.980

@<SCITEGIC>MOL_PROPERTY
Bond
SciTegic.value.DoubleValue
0.198

@<SCITEGIC>MOL_PROPERTY
Angle
SciTegic.value.DoubleValue
1.369

@<SCITEGIC>MOL_PROPERTY
Pdih
SciTegic.value.DoubleValue
2.230

@<SCITEGIC>MOL_PROPERTY
Idih
SciTegic.value.DoubleValue
0.000

@<SCITEGIC>MOL_PROPERTY
Tether
SciTegic.value.DoubleValue
0.000

@<TRIPOS>MOLECULE
guest-s11_confgen4.mol2 : confsearch ligand conformer 815
          20          19           1
SMALL
USER_CHARGES
 
@<TRIPOS>ATOM
       1    N1      20.884969   18.009879   21.111637 N.4        1 MOL1        -0.5919
       2    H1      21.810246   17.649357   20.855571 H          1 MOL1         0.3682
       3    H2      20.694777   17.709407   22.072506 H          1 MOL1         0.3682
       4    H3      20.204357   17.541472   20.505199 H          1 MOL1         0.3682
       5    C1      20.811518   19.518732   20.979260 C.3        1 MOL1         0.0252
       6    H4      21.022291   19.758257   19.933448 H          1 MOL1         0.0971
       7    H5      21.598393   19.963504   21.594244 H          1 MOL1         0.0971
       8    C2      19.443369   20.115873   21.366560 C.3        1 MOL1        -0.1369
       9    H6      19.348292   21.086603   20.862124 H          1 MOL1         0.0997
      10    H7      18.636694   19.489738   20.962779 H          1 MOL1         0.0997
      11    C3      19.230111   20.349459   22.886369 C.3        1 MOL1        -0.1329
      12    H8      18.247001   20.824419   23.010591 H          1 MOL1         0.0997
      13    H9      19.958914   21.082880   23.258398 H          1 MOL1         0.0997
      14    C4      19.261478   19.074546   23.767354 C.3        1 MOL1        -0.1305
      15    H10     18.531692   19.193244   24.580730 H          1 MOL1         0.0997
      16    H11     18.923206   18.201817   23.192743 H          1 MOL1         0.0997
      17    C5      20.645033   18.812855   24.408534 C.3        1 MOL1        -0.2320
      18    H12     21.447143   18.752072   23.665216 H          1 MOL1         0.1008
      19    H13     20.905117   19.618678   25.107337 H          1 MOL1         0.1008
      20    H14     20.636825   17.873428   24.976506 H          1 MOL1         0.1008
@<TRIPOS>BOND
    1     1     2    1
    2     1     3    1
    3     1     4    1
    4     1     5    1
    5     5     6    1
    6     5     7    1
    7     5     8    1
    8     8     9    1
    9     8    10    1
   10     8    11    1
   11    11    12    1
   12    11    13    1
   13    11    14    1
   14    14    15    1
   15    14    16    1
   16    14    17    1
   17    17    18    1
   18    17    19    1
   19    17    20    1
@<TRIPOS>SUBSTRUCTURE
       1 MOL1            1 RESIDUE      1      MOL     
@<SCITEGIC>MOL_PROPERTY
VConf Rank
SciTegic.value.IntegerValue
815

@<SCITEGIC>MOL_PROPERTY
Conf_Id
SciTegic.value.IntegerValue
77

@<SCITEGIC>MOL_PROPERTY
Delta U+W
SciTegic.value.DoubleValue
5.366

@<SCITEGIC>MOL_PROPERTY
U+W
SciTegic.value.DoubleValue
-6.412

@<SCITEGIC>MOL_PROPERTY
Grad RMS
SciTegic.value.DoubleValue
0.000000

@<SCITEGIC>MOL_PROPERTY
U
SciTegic.value.DoubleValue
51.542

@<SCITEGIC>MOL_PROPERTY
W
SciTegic.value.DoubleValue
-57.954

@<SCITEGIC>MOL_PROPERTY
W(PB)
SciTegic.value.DoubleValue
-59.811

@<SCITEGIC>MOL_PROPERTY
W(SA)
SciTegic.value.DoubleValue
1.857

@<SCITEGIC>MOL_PROPERTY
Valence
SciTegic.value.DoubleValue
5.347

@<SCITEGIC>MOL_PROPERTY
Coulomb
SciTegic.value.DoubleValue
45.870

@<SCITEGIC>MOL_PROPERTY
VdW
SciTegic.value.DoubleValue
0.325

@<SCITEGIC>MOL_PROPERTY
VdW6
SciTegic.value.DoubleValue
-6.161

@<SCITEGIC>MOL_PROPERTY
VdW12
SciTegic.value.DoubleValue
6.486

@<SCITEGIC>MOL_PROPERTY
Bond
SciTegic.value.DoubleValue
0.201

@<SCITEGIC>MOL_PROPERTY
Angle
SciTegic.value.DoubleValue
1.484

@<SCITEGIC>MOL_PROPERTY
Pdih
SciTegic.value.DoubleValue
3.662

@<SCITEGIC>MOL_PROPERTY
Idih
SciTegic.value.DoubleValue
0.000

@<SCITEGIC>MOL_PROPERTY
Tether
SciTegic.value.DoubleValue
0.000

@<TRIPOS>MOLECULE
guest-s11_confgen4.mol2 : confsearch ligand conformer 816
          20          19           1
SMALL
USER_CHARGES
 
@<TRIPOS>ATOM
       1    N1      18.493487   19.319975   23.394173 N.4        1 MOL1        -0.5919
       2    H1      17.667032   19.367940   22.789957 H          1 MOL1         0.3682
       3    H2      18.899913   18.386263   23.281358 H          1 MOL1         0.3682
       4    H3      18.160508   19.394159   24.361285 H          1 MOL1         0.3682
       5    C1      19.498756   20.404826   23.059372 C.3        1 MOL1         0.0252
       6    H4      20.325515   20.349101   23.772511 H          1 MOL1         0.0971
       7    H5      18.992861   21.363766   23.200883 H          1 MOL1         0.0971
       8    C2      20.043770   20.331029   21.618565 C.3        1 MOL1        -0.1369
       9    H6      19.224524   20.108256   20.922133 H          1 MOL1         0.0997
      10    H7      20.402794   21.332361   21.346080 H          1 MOL1         0.0997
      11    C3      21.214373   19.334156   21.404564 C.3        1 MOL1        -0.1329
      12    H8      22.081999   19.640953   22.005034 H          1 MOL1         0.0997
      13    H9      21.535673   19.425207   20.357663 H          1 MOL1         0.0997
      14    C4      20.879663   17.845198   21.675660 C.3        1 MOL1        -0.1305
      15    H10     19.817287   17.648019   21.478834 H          1 MOL1         0.0997
      16    H11     21.433090   17.225512   20.955960 H          1 MOL1         0.0997
      17    C5      21.274212   17.382965   23.098506 C.3        1 MOL1        -0.2320
      18    H12     20.969499   16.341589   23.265441 H          1 MOL1         0.1008
      19    H13     22.362647   17.433863   23.232821 H          1 MOL1         0.1008
      20    H14     20.818272   17.998730   23.881159 H          1 MOL1         0.1008
@<TRIPOS>BOND
    1     1     2    1
    2     1     3    1
    3     1     4    1
    4     1     5    1
    5     5     6    1
    6     5     7    1
    7     5     8    1
    8     8     9    1
    9     8    10    1
   10     8    11    1
   11    11    12    1
   12    11    13    1
   13    11    14    1
   14    14    15    1
   15    14    16    1
   16    14    17    1
   17    17    18    1
   18    17    19    1
   19    17    20    1
@<TRIPOS>SUBSTRUCTURE
       1 MOL1            1 RESIDUE      1      MOL     
@<SCITEGIC>MOL_PROPERTY
VConf Rank
SciTegic.value.IntegerValue
816

@<SCITEGIC>MOL_PROPERTY
Conf_Id
SciTegic.value.IntegerValue
67

@<SCITEGIC>MOL_PROPERTY
Delta U+W
SciTegic.value.DoubleValue
5.353

@<SCITEGIC>MOL_PROPERTY
U+W
SciTegic.value.DoubleValue
-6.425

@<SCITEGIC>MOL_PROPERTY
Grad RMS
SciTegic.value.DoubleValue
0.000000

@<SCITEGIC>MOL_PROPERTY
U
SciTegic.value.DoubleValue
51.541

@<SCITEGIC>MOL_PROPERTY
W
SciTegic.value.DoubleValue
-57.966

@<SCITEGIC>MOL_PROPERTY
W(PB)
SciTegic.value.DoubleValue
-59.821

@<SCITEGIC>MOL_PROPERTY
W(SA)
SciTegic.value.DoubleValue
1.855

@<SCITEGIC>MOL_PROPERTY
Valence
SciTegic.value.DoubleValue
5.347

@<SCITEGIC>MOL_PROPERTY
Coulomb
SciTegic.value.DoubleValue
45.870

@<SCITEGIC>MOL_PROPERTY
VdW
SciTegic.value.DoubleValue
0.325

@<SCITEGIC>MOL_PROPERTY
VdW6
SciTegic.value.DoubleValue
-6.161

@<SCITEGIC>MOL_PROPERTY
VdW12
SciTegic.value.DoubleValue
6.486

@<SCITEGIC>MOL_PROPERTY
Bond
SciTegic.value.DoubleValue
0.201

@<SCITEGIC>MOL_PROPERTY
Angle
SciTegic.value.DoubleValue
1.485

@<SCITEGIC>MOL_PROPERTY
Pdih
SciTegic.value.DoubleValue
3.662

@<SCITEGIC>MOL_PROPERTY
Idih
SciTegic.value.DoubleValue
0.000

@<SCITEGIC>MOL_PROPERTY
Tether
SciTegic.value.DoubleValue
0.000

@<TRIPOS>MOLECULE
guest-s11_confgen4.mol2 : confsearch ligand conformer 817
          20          19           1
SMALL
USER_CHARGES
 
@<TRIPOS>ATOM
       1    N1      18.746667   22.006378   22.179198 N.4        1 MOL1        -0.5919
       2    H1      19.200994   22.466108   22.974574 H          1 MOL1         0.3682
       3    H2      18.630388   22.718888   21.450907 H          1 MOL1         0.3682
       4    H3      17.805966   21.737079   22.484070 H          1 MOL1         0.3682
       5    C1      19.543173   20.817140   21.681424 C.3        1 MOL1         0.0252
       6    H4      20.518417   21.180534   21.346221 H          1 MOL1         0.0971
       7    H5      19.018678   20.396710   20.819068 H          1 MOL1         0.0971
       8    C2      19.736378   19.727771   22.751570 C.3        1 MOL1        -0.1369
       9    H6      20.249146   20.158252   23.622100 H          1 MOL1         0.0997
      10    H7      18.754572   19.377116   23.096776 H          1 MOL1         0.0997
      11    C3      20.551978   18.535226   22.204428 C.3        1 MOL1        -0.1329
      12    H8      21.531557   18.890493   21.855141 H          1 MOL1         0.0997
      13    H9      20.038739   18.110231   21.330496 H          1 MOL1         0.0997
      14    C4      20.752381   17.434932   23.270603 C.3        1 MOL1        -0.1305
      15    H10     21.267391   17.855358   24.145848 H          1 MOL1         0.0997
      16    H11     19.774800   17.075133   23.621212 H          1 MOL1         0.0997
      17    C5      21.567772   16.245628   22.719538 C.3        1 MOL1        -0.2320
      18    H12     22.564810   16.568107   22.392217 H          1 MOL1         0.1008
      19    H13     21.699477   15.475407   23.490548 H          1 MOL1         0.1008
      20    H14     21.060509   15.781698   21.863577 H          1 MOL1         0.1008
@<TRIPOS>BOND
    1     1     2    1
    2     1     3    1
    3     1     4    1
    4     1     5    1
    5     5     6    1
    6     5     7    1
    7     5     8    1
    8     8     9    1
    9     8    10    1
   10     8    11    1
   11    11    12    1
   12    11    13    1
   13    11    14    1
   14    14    15    1
   15    14    16    1
   16    14    17    1
   17    17    18    1
   18    17    19    1
   19    17    20    1
@<TRIPOS>SUBSTRUCTURE
       1 MOL1            1 RESIDUE      1      MOL     
@<SCITEGIC>MOL_PROPERTY
VConf Rank
SciTegic.value.IntegerValue
817

@<SCITEGIC>MOL_PROPERTY
Conf_Id
SciTegic.value.IntegerValue
72

@<SCITEGIC>MOL_PROPERTY
Delta U+W
SciTegic.value.DoubleValue
0.000

@<SCITEGIC>MOL_PROPERTY
U+W
SciTegic.value.DoubleValue
-11.778

@<SCITEGIC>MOL_PROPERTY
Grad RMS
SciTegic.value.DoubleValue
0.000000

@<SCITEGIC>MOL_PROPERTY
U
SciTegic.value.DoubleValue
45.772

@<SCITEGIC>MOL_PROPERTY
W
SciTegic.value.DoubleValue
-57.550

@<SCITEGIC>MOL_PROPERTY
W(PB)
SciTegic.value.DoubleValue
-59.511

@<SCITEGIC>MOL_PROPERTY
W(SA)
SciTegic.value.DoubleValue
1.961

@<SCITEGIC>MOL_PROPERTY
Valence
SciTegic.value.DoubleValue
1.299

@<SCITEGIC>MOL_PROPERTY
Coulomb
SciTegic.value.DoubleValue
44.177

@<SCITEGIC>MOL_PROPERTY
VdW
SciTegic.value.DoubleValue
0.297

@<SCITEGIC>MOL_PROPERTY
VdW6
SciTegic.value.DoubleValue
-3.490

@<SCITEGIC>MOL_PROPERTY
VdW12
SciTegic.value.DoubleValue
3.786

@<SCITEGIC>MOL_PROPERTY
Bond
SciTegic.value.DoubleValue
0.096

@<SCITEGIC>MOL_PROPERTY
Angle
SciTegic.value.DoubleValue
0.381

@<SCITEGIC>MOL_PROPERTY
Pdih
SciTegic.value.DoubleValue
0.822

@<SCITEGIC>MOL_PROPERTY
Idih
SciTegic.value.DoubleValue
0.000

@<SCITEGIC>MOL_PROPERTY
Tether
SciTegic.value.DoubleValue
0.000

@<TRIPOS>MOLECULE
guest-s11_confgen4.mol2 : confsearch ligand conformer 818
          20          19           1
SMALL
USER_CHARGES
 
@<TRIPOS>ATOM
       1    N1      20.322877   19.923354   19.579969 N.4        1 MOL1        -0.5919
       2    H1      19.341700   20.218380   19.555711 H          1 MOL1         0.3682
       3    H2      20.889019   20.769238   19.699662 H          1 MOL1         0.3682
       4    H3      20.543153   19.547253   18.651740 H          1 MOL1         0.3682
       5    C1      20.582536   18.908249   20.674826 C.3        1 MOL1         0.0252
       6    H4      21.635179   18.617252   20.622309 H          1 MOL1         0.0971
       7    H5      19.971671   18.025242   20.468310 H          1 MOL1         0.0971
       8    C2      20.262323   19.441389   22.082837 C.3        1 MOL1        -0.1369
       9    H6      20.866193   20.337133   22.279796 H          1 MOL1         0.0997
      10    H7      19.208958   19.746682   22.118672 H          1 MOL1         0.0997
      11    C3      20.543887   18.374667   23.167251 C.3        1 MOL1        -0.1329
      12    H8      21.581310   18.026540   23.065751 H          1 MOL1         0.0997
      13    H9      19.905825   17.496335   22.996969 H          1 MOL1         0.0997
      14    C4      20.337300   18.892295   24.611569 C.3        1 MOL1        -0.1305
      15    H10     20.657536   18.111166   25.315292 H          1 MOL1         0.0997
      16    H11     20.991394   19.756431   24.794067 H          1 MOL1         0.0997
      17    C5      18.872375   19.274042   24.924288 C.3        1 MOL1        -0.2320
      18    H12     18.193729   18.435048   24.722938 H          1 MOL1         0.1008
      19    H13     18.763899   19.546335   25.982136 H          1 MOL1         0.1008
      20    H14     18.543162   20.133865   24.327843 H          1 MOL1         0.1008
@<TRIPOS>BOND
    1     1     2    1
    2     1     3    1
    3     1     4    1
    4     1     5    1
    5     5     6    1
    6     5     7    1
    7     5     8    1
    8     8     9    1
    9     8    10    1
   10     8    11    1
   11    11    12    1
   12    11    13    1
   13    11    14    1
   14    14    15    1
   15    14    16    1
   16    14    17    1
   17    17    18    1
   18    17    19    1
   19    17    20    1
@<TRIPOS>SUBSTRUCTURE
       1 MOL1            1 RESIDUE      1      MOL     
@<SCITEGIC>MOL_PROPERTY
VConf Rank
SciTegic.value.IntegerValue
818

@<SCITEGIC>MOL_PROPERTY
Conf_Id
SciTegic.value.IntegerValue
42

@<SCITEGIC>MOL_PROPERTY
Delta U+W
SciTegic.value.DoubleValue
0.508

@<SCITEGIC>MOL_PROPERTY
U+W
SciTegic.value.DoubleValue
-11.270

@<SCITEGIC>MOL_PROPERTY
Grad RMS
SciTegic.value.DoubleValue
0.000000

@<SCITEGIC>MOL_PROPERTY
U
SciTegic.value.DoubleValue
46.486

@<SCITEGIC>MOL_PROPERTY
W
SciTegic.value.DoubleValue
-57.756

@<SCITEGIC>MOL_PROPERTY
W(PB)
SciTegic.value.DoubleValue
-59.705

@<SCITEGIC>MOL_PROPERTY
W(SA)
SciTegic.value.DoubleValue
1.949

@<SCITEGIC>MOL_PROPERTY
Valence
SciTegic.value.DoubleValue
1.806

@<SCITEGIC>MOL_PROPERTY
Coulomb
SciTegic.value.DoubleValue
44.248

@<SCITEGIC>MOL_PROPERTY
VdW
SciTegic.value.DoubleValue
0.433

@<SCITEGIC>MOL_PROPERTY
VdW6
SciTegic.value.DoubleValue
-4.089

@<SCITEGIC>MOL_PROPERTY
VdW12
SciTegic.value.DoubleValue
4.522

@<SCITEGIC>MOL_PROPERTY
Bond
SciTegic.value.DoubleValue
0.131

@<SCITEGIC>MOL_PROPERTY
Angle
SciTegic.value.DoubleValue
0.628

@<SCITEGIC>MOL_PROPERTY
Pdih
SciTegic.value.DoubleValue
1.047

@<SCITEGIC>MOL_PROPERTY
Idih
SciTegic.value.DoubleValue
0.000

@<SCITEGIC>MOL_PROPERTY
Tether
SciTegic.value.DoubleValue
0.000

@<TRIPOS>MOLECULE
guest-s11_confgen4.mol2 : confsearch ligand conformer 819
          20          19           1
SMALL
USER_CHARGES
 
@<TRIPOS>ATOM
       1    N1      18.941413   17.956245   19.965183 N.4        1 MOL1        -0.5919
       2    H1      18.075372   18.504017   19.981961 H          1 MOL1         0.3682
       3    H2      19.612689   18.471472   19.387028 H          1 MOL1         0.3682
       4    H3      18.731261   17.083213   19.469974 H          1 MOL1         0.3682
       5    C1      19.475481   17.697946   21.359685 C.3        1 MOL1         0.0252
       6    H4      20.377608   17.087005   21.267904 H          1 MOL1         0.0971
       7    H5      18.724781   17.121408   21.906996 H          1 MOL1         0.0971
       8    C2      19.801079   18.989056   22.131885 C.3        1 MOL1        -0.1369
       9    H6      20.541462   19.567656   21.565209 H          1 MOL1         0.0997
      10    H7      18.896326   19.606679   22.207878 H          1 MOL1         0.0997
      11    C3      20.340024   18.678330   23.548261 C.3        1 MOL1        -0.1329
      12    H8      21.270865   18.099360   23.471345 H          1 MOL1         0.0997
      13    H9      19.619199   18.035142   24.072152 H          1 MOL1         0.0997
      14    C4      20.586424   19.942799   24.406793 C.3        1 MOL1        -0.1305
      15    H10     19.651962   20.512674   24.506295 H          1 MOL1         0.0997
      16    H11     20.864800   19.630279   25.423049 H          1 MOL1         0.0997
      17    C5      21.697298   20.859879   23.846028 C.3        1 MOL1        -0.2320
      18    H12     21.411942   21.295586   22.880547 H          1 MOL1         0.1008
      19    H13     21.894765   21.690162   24.536382 H          1 MOL1         0.1008
      20    H14     22.635588   20.306506   23.710364 H          1 MOL1         0.1008
@<TRIPOS>BOND
    1     1     2    1
    2     1     3    1
    3     1     4    1
    4     1     5    1
    5     5     6    1
    6     5     7    1
    7     5     8    1
    8     8     9    1
    9     8    10    1
   10     8    11    1
   11    11    12    1
   12    11    13    1
   13    11    14    1
   14    14    15    1
   15    14    16    1
   16    14    17    1
   17    17    18    1
   18    17    19    1
   19    17    20    1
@<TRIPOS>SUBSTRUCTURE
       1 MOL1            1 RESIDUE      1      MOL     
@<SCITEGIC>MOL_PROPERTY
VConf Rank
SciTegic.value.IntegerValue
819

@<SCITEGIC>MOL_PROPERTY
Conf_Id
SciTegic.value.IntegerValue
41

@<SCITEGIC>MOL_PROPERTY
Delta U+W
SciTegic.value.DoubleValue
0.515

@<SCITEGIC>MOL_PROPERTY
U+W
SciTegic.value.DoubleValue
-11.263

@<SCITEGIC>MOL_PROPERTY
Grad RMS
SciTegic.value.DoubleValue
0.000000

@<SCITEGIC>MOL_PROPERTY
U
SciTegic.value.DoubleValue
46.486

@<SCITEGIC>MOL_PROPERTY
W
SciTegic.value.DoubleValue
-57.749

@<SCITEGIC>MOL_PROPERTY
W(PB)
SciTegic.value.DoubleValue
-59.685

@<SCITEGIC>MOL_PROPERTY
W(SA)
SciTegic.value.DoubleValue
1.936

@<SCITEGIC>MOL_PROPERTY
Valence
SciTegic.value.DoubleValue
1.806

@<SCITEGIC>MOL_PROPERTY
Coulomb
SciTegic.value.DoubleValue
44.248

@<SCITEGIC>MOL_PROPERTY
VdW
SciTegic.value.DoubleValue
0.433

@<SCITEGIC>MOL_PROPERTY
VdW6
SciTegic.value.DoubleValue
-4.089

@<SCITEGIC>MOL_PROPERTY
VdW12
SciTegic.value.DoubleValue
4.522

@<SCITEGIC>MOL_PROPERTY
Bond
SciTegic.value.DoubleValue
0.131

@<SCITEGIC>MOL_PROPERTY
Angle
SciTegic.value.DoubleValue
0.628

@<SCITEGIC>MOL_PROPERTY
Pdih
SciTegic.value.DoubleValue
1.047

@<SCITEGIC>MOL_PROPERTY
Idih
SciTegic.value.DoubleValue
0.000

@<SCITEGIC>MOL_PROPERTY
Tether
SciTegic.value.DoubleValue
0.000

@<TRIPOS>MOLECULE
guest-s11_confgen4.mol2 : confsearch ligand conformer 820
          20          19           1
SMALL
USER_CHARGES
 
@<TRIPOS>ATOM
       1    N1      17.981668   19.293214   20.749342 N.4        1 MOL1        -0.5919
       2    H1      16.998751   19.511995   20.555663 H          1 MOL1         0.3682
       3    H2      18.526338   20.124601   20.502220 H          1 MOL1         0.3682
       4    H3      18.254346   18.548496   20.100314 H          1 MOL1         0.3682
       5    C1      18.193478   18.887889   22.195375 C.3        1 MOL1         0.0252
       6    H4      17.550172   18.026469   22.394656 H          1 MOL1         0.0971
       7    H5      17.862834   19.713166   22.831797 H          1 MOL1         0.0971
       8    C2      19.652171   18.523385   22.534818 C.3        1 MOL1        -0.1369
       9    H6      19.673952   18.135107   23.560671 H          1 MOL1         0.0997
      10    H7      19.986992   17.706197   21.882294 H          1 MOL1         0.0997
      11    C3      20.615144   19.731097   22.411412 C.3        1 MOL1        -0.1329
      12    H8      20.286973   20.535871   23.083804 H          1 MOL1         0.0997
      13    H9      20.561976   20.138418   21.393144 H          1 MOL1         0.0997
      14    C4      22.091539   19.375686   22.712947 C.3        1 MOL1        -0.1305
      15    H10     22.428840   18.580333   22.033605 H          1 MOL1         0.0997
      16    H11     22.716680   20.252429   22.492810 H          1 MOL1         0.0997
      17    C5      22.335942   18.946901   24.177930 C.3        1 MOL1        -0.2320
      18    H12     21.830271   18.002112   24.412321 H          1 MOL1         0.1008
      19    H13     23.408252   18.800051   24.361055 H          1 MOL1         0.1008
      20    H14     21.978212   19.712331   24.878750 H          1 MOL1         0.1008
@<TRIPOS>BOND
    1     1     2    1
    2     1     3    1
    3     1     4    1
    4     1     5    1
    5     5     6    1
    6     5     7    1
    7     5     8    1
    8     8     9    1
    9     8    10    1
   10     8    11    1
   11    11    12    1
   12    11    13    1
   13    11    14    1
   14    14    15    1
   15    14    16    1
   16    14    17    1
   17    17    18    1
   18    17    19    1
   19    17    20    1
@<TRIPOS>SUBSTRUCTURE
       1 MOL1            1 RESIDUE      1      MOL     
@<SCITEGIC>MOL_PROPERTY
VConf Rank
SciTegic.value.IntegerValue
820

@<SCITEGIC>MOL_PROPERTY
Conf_Id
SciTegic.value.IntegerValue
33

@<SCITEGIC>MOL_PROPERTY
Delta U+W
SciTegic.value.DoubleValue
0.703

@<SCITEGIC>MOL_PROPERTY
U+W
SciTegic.value.DoubleValue
-11.075

@<SCITEGIC>MOL_PROPERTY
Grad RMS
SciTegic.value.DoubleValue
0.000000

@<SCITEGIC>MOL_PROPERTY
U
SciTegic.value.DoubleValue
47.080

@<SCITEGIC>MOL_PROPERTY
W
SciTegic.value.DoubleValue
-58.154

@<SCITEGIC>MOL_PROPERTY
W(PB)
SciTegic.value.DoubleValue
-60.053

@<SCITEGIC>MOL_PROPERTY
W(SA)
SciTegic.value.DoubleValue
1.899

@<SCITEGIC>MOL_PROPERTY
Valence
SciTegic.value.DoubleValue
1.943

@<SCITEGIC>MOL_PROPERTY
Coulomb
SciTegic.value.DoubleValue
44.572

@<SCITEGIC>MOL_PROPERTY
VdW
SciTegic.value.DoubleValue
0.565

@<SCITEGIC>MOL_PROPERTY
VdW6
SciTegic.value.DoubleValue
-4.575

@<SCITEGIC>MOL_PROPERTY
VdW12
SciTegic.value.DoubleValue
5.139

@<SCITEGIC>MOL_PROPERTY
Bond
SciTegic.value.DoubleValue
0.158

@<SCITEGIC>MOL_PROPERTY
Angle
SciTegic.value.DoubleValue
0.700

@<SCITEGIC>MOL_PROPERTY
Pdih
SciTegic.value.DoubleValue
1.085

@<SCITEGIC>MOL_PROPERTY
Idih
SciTegic.value.DoubleValue
0.000

@<SCITEGIC>MOL_PROPERTY
Tether
SciTegic.value.DoubleValue
0.000

@<TRIPOS>MOLECULE
guest-s11_confgen4.mol2 : confsearch ligand conformer 821
          20          19           1
SMALL
USER_CHARGES
 
@<TRIPOS>ATOM
       1    N1      22.878122   19.054097   22.024990 N.4        1 MOL1        -0.5919
       2    H1      23.776253   19.516778   21.849530 H          1 MOL1         0.3682
       3    H2      23.083411   18.189292   22.535052 H          1 MOL1         0.3682
       4    H3      22.498432   18.784667   21.112750 H          1 MOL1         0.3682
       5    C1      21.924320   19.949568   22.792162 C.3        1 MOL1         0.0252
       6    H4      21.766845   20.859408   22.206640 H          1 MOL1         0.0971
       7    H5      22.414600   20.228967   23.728732 H          1 MOL1         0.0971
       8    C2      20.565576   19.292453   23.105012 C.3        1 MOL1        -0.1369
       9    H6      20.727973   18.369966   23.678018 H          1 MOL1         0.0997
      10    H7      20.003138   19.972241   23.757056 H          1 MOL1         0.0997
      11    C3      19.740204   18.987866   21.829431 C.3        1 MOL1        -0.1329
      12    H8      20.322466   18.336748   21.164130 H          1 MOL1         0.0997
      13    H9      19.562393   19.918629   21.273075 H          1 MOL1         0.0997
      14    C4      18.387347   18.294034   22.121578 C.3        1 MOL1        -0.1305
      15    H10     17.922465   18.012769   21.166216 H          1 MOL1         0.0997
      16    H11     18.560748   17.355330   22.666218 H          1 MOL1         0.0997
      17    C5      17.398179   19.179760   22.913286 C.3        1 MOL1        -0.2320
      18    H12     17.232117   20.138474   22.405058 H          1 MOL1         0.1008
      19    H13     16.426241   18.678635   23.008981 H          1 MOL1         0.1008
      20    H14     17.762621   19.386053   23.927138 H          1 MOL1         0.1008
@<TRIPOS>BOND
    1     1     2    1
    2     1     3    1
    3     1     4    1
    4     1     5    1
    5     5     6    1
    6     5     7    1
    7     5     8    1
    8     8     9    1
    9     8    10    1
   10     8    11    1
   11    11    12    1
   12    11    13    1
   13    11    14    1
   14    14    15    1
   15    14    16    1
   16    14    17    1
   17    17    18    1
   18    17    19    1
   19    17    20    1
@<TRIPOS>SUBSTRUCTURE
       1 MOL1            1 RESIDUE      1      MOL     
@<SCITEGIC>MOL_PROPERTY
VConf Rank
SciTegic.value.IntegerValue
821

@<SCITEGIC>MOL_PROPERTY
Conf_Id
SciTegic.value.IntegerValue
24

@<SCITEGIC>MOL_PROPERTY
Delta U+W
SciTegic.value.DoubleValue
0.847

@<SCITEGIC>MOL_PROPERTY
U+W
SciTegic.value.DoubleValue
-10.931

@<SCITEGIC>MOL_PROPERTY
Grad RMS
SciTegic.value.DoubleValue
0.000000

@<SCITEGIC>MOL_PROPERTY
U
SciTegic.value.DoubleValue
47.080

@<SCITEGIC>MOL_PROPERTY
W
SciTegic.value.DoubleValue
-58.011

@<SCITEGIC>MOL_PROPERTY
W(PB)
SciTegic.value.DoubleValue
-59.914

@<SCITEGIC>MOL_PROPERTY
W(SA)
SciTegic.value.DoubleValue
1.903

@<SCITEGIC>MOL_PROPERTY
Valence
SciTegic.value.DoubleValue
1.943

@<SCITEGIC>MOL_PROPERTY
Coulomb
SciTegic.value.DoubleValue
44.572

@<SCITEGIC>MOL_PROPERTY
VdW
SciTegic.value.DoubleValue
0.565

@<SCITEGIC>MOL_PROPERTY
VdW6
SciTegic.value.DoubleValue
-4.575

@<SCITEGIC>MOL_PROPERTY
VdW12
SciTegic.value.DoubleValue
5.140

@<SCITEGIC>MOL_PROPERTY
Bond
SciTegic.value.DoubleValue
0.158

@<SCITEGIC>MOL_PROPERTY
Angle
SciTegic.value.DoubleValue
0.700

@<SCITEGIC>MOL_PROPERTY
Pdih
SciTegic.value.DoubleValue
1.085

@<SCITEGIC>MOL_PROPERTY
Idih
SciTegic.value.DoubleValue
0.000

@<SCITEGIC>MOL_PROPERTY
Tether
SciTegic.value.DoubleValue
0.000

@<TRIPOS>MOLECULE
guest-s11_confgen4.mol2 : confsearch ligand conformer 822
          20          19           1
SMALL
USER_CHARGES
 
@<TRIPOS>ATOM
       1    N1      19.516828   16.712925   23.456191 N.4        1 MOL1        -0.5919
       2    H1      18.586931   16.355799   23.699587 H          1 MOL1         0.3682
       3    H2      19.780270   16.275231   22.567797 H          1 MOL1         0.3682
       4    H3      20.165155   16.362728   24.168472 H          1 MOL1         0.3682
       5    C1      19.534212   18.225713   23.369602 C.3        1 MOL1         0.0252
       6    H4      19.216655   18.623392   24.337273 H          1 MOL1         0.0971
       7    H5      18.801519   18.527384   22.616514 H          1 MOL1         0.0971
       8    C2      20.918072   18.795212   23.004598 C.3        1 MOL1        -0.1369
       9    H6      21.653852   18.452116   23.743972 H          1 MOL1         0.0997
      10    H7      21.241858   18.389539   22.037620 H          1 MOL1         0.0997
      11    C3      20.937008   20.343721   22.962710 C.3        1 MOL1        -0.1329
      12    H8      21.951671   20.680848   22.709596 H          1 MOL1         0.0997
      13    H9      20.733219   20.730170   23.970986 H          1 MOL1         0.0997
      14    C4      19.929341   20.980445   21.971543 C.3        1 MOL1        -0.1305
      15    H10     18.899782   20.741166   22.270760 H          1 MOL1         0.0997
      16    H11     20.015720   22.074032   22.038537 H          1 MOL1         0.0997
      17    C5      20.156926   20.552245   20.503940 C.3        1 MOL1        -0.2320
      18    H12     19.481187   21.100014   19.834440 H          1 MOL1         0.1008
      19    H13     21.186549   20.762141   20.186455 H          1 MOL1         0.1008
      20    H14     19.964528   19.481469   20.362320 H          1 MOL1         0.1008
@<TRIPOS>BOND
    1     1     2    1
    2     1     3    1
    3     1     4    1
    4     1     5    1
    5     5     6    1
    6     5     7    1
    7     5     8    1
    8     8     9    1
    9     8    10    1
   10     8    11    1
   11    11    12    1
   12    11    13    1
   13    11    14    1
   14    14    15    1
   15    14    16    1
   16    14    17    1
   17    17    18    1
   18    17    19    1
   19    17    20    1
@<TRIPOS>SUBSTRUCTURE
       1 MOL1            1 RESIDUE      1      MOL     
@<SCITEGIC>MOL_PROPERTY
VConf Rank
SciTegic.value.IntegerValue
822

@<SCITEGIC>MOL_PROPERTY
Conf_Id
SciTegic.value.IntegerValue
64

@<SCITEGIC>MOL_PROPERTY
Delta U+W
SciTegic.value.DoubleValue
0.707

@<SCITEGIC>MOL_PROPERTY
U+W
SciTegic.value.DoubleValue
-11.070

@<SCITEGIC>MOL_PROPERTY
Grad RMS
SciTegic.value.DoubleValue
0.000000

@<SCITEGIC>MOL_PROPERTY
U
SciTegic.value.DoubleValue
47.077

@<SCITEGIC>MOL_PROPERTY
W
SciTegic.value.DoubleValue
-58.148

@<SCITEGIC>MOL_PROPERTY
W(PB)
SciTegic.value.DoubleValue
-60.054

@<SCITEGIC>MOL_PROPERTY
W(SA)
SciTegic.value.DoubleValue
1.906

@<SCITEGIC>MOL_PROPERTY
Valence
SciTegic.value.DoubleValue
2.039

@<SCITEGIC>MOL_PROPERTY
Coulomb
SciTegic.value.DoubleValue
44.655

@<SCITEGIC>MOL_PROPERTY
VdW
SciTegic.value.DoubleValue
0.383

@<SCITEGIC>MOL_PROPERTY
VdW6
SciTegic.value.DoubleValue
-4.912

@<SCITEGIC>MOL_PROPERTY
VdW12
SciTegic.value.DoubleValue
5.295

@<SCITEGIC>MOL_PROPERTY
Bond
SciTegic.value.DoubleValue
0.159

@<SCITEGIC>MOL_PROPERTY
Angle
SciTegic.value.DoubleValue
0.856

@<SCITEGIC>MOL_PROPERTY
Pdih
SciTegic.value.DoubleValue
1.024

@<SCITEGIC>MOL_PROPERTY
Idih
SciTegic.value.DoubleValue
0.000

@<SCITEGIC>MOL_PROPERTY
Tether
SciTegic.value.DoubleValue
0.000

@<TRIPOS>MOLECULE
guest-s11_confgen4.mol2 : confsearch ligand conformer 823
          20          19           1
SMALL
USER_CHARGES
 
@<TRIPOS>ATOM
       1    N1      18.290249   20.521554   23.817821 N.4        1 MOL1        -0.5919
       2    H1      17.344653   20.130402   23.761640 H          1 MOL1         0.3682
       3    H2      18.675681   20.248395   24.727243 H          1 MOL1         0.3682
       4    H3      18.189311   21.541899   23.831816 H          1 MOL1         0.3682
       5    C1      19.163876   20.057730   22.669792 C.3        1 MOL1         0.0252
       6    H4      20.141260   20.535365   22.777360 H          1 MOL1         0.0971
       7    H5      18.711029   20.406834   21.737894 H          1 MOL1         0.0971
       8    C2      19.336522   18.527902   22.620368 C.3        1 MOL1        -0.1369
       9    H6      19.782606   18.175338   23.559070 H          1 MOL1         0.0997
      10    H7      18.346801   18.056906   22.554220 H          1 MOL1         0.0997
      11    C3      20.193642   18.059881   21.417746 C.3        1 MOL1        -0.1329
      12    H8      19.668259   18.311664   20.486043 H          1 MOL1         0.0997
      13    H9      20.265739   16.963661   21.436873 H          1 MOL1         0.0997
      14    C4      21.621594   18.660867   21.363063 C.3        1 MOL1        -0.1305
      15    H10     22.128689   18.277714   20.466441 H          1 MOL1         0.0997
      16    H11     21.570128   19.750908   21.236821 H          1 MOL1         0.0997
      17    C5      22.479219   18.321176   22.603264 C.3        1 MOL1        -0.2320
      18    H12     22.529353   17.236400   22.763649 H          1 MOL1         0.1008
      19    H13     23.505318   18.688869   22.473537 H          1 MOL1         0.1008
      20    H14     22.075288   18.785170   23.511660 H          1 MOL1         0.1008
@<TRIPOS>BOND
    1     1     2    1
    2     1     3    1
    3     1     4    1
    4     1     5    1
    5     5     6    1
    6     5     7    1
    7     5     8    1
    8     8     9    1
    9     8    10    1
   10     8    11    1
   11    11    12    1
   12    11    13    1
   13    11    14    1
   14    14    15    1
   15    14    16    1
   16    14    17    1
   17    17    18    1
   18    17    19    1
   19    17    20    1
@<TRIPOS>SUBSTRUCTURE
       1 MOL1            1 RESIDUE      1      MOL     
@<SCITEGIC>MOL_PROPERTY
VConf Rank
SciTegic.value.IntegerValue
823

@<SCITEGIC>MOL_PROPERTY
Conf_Id
SciTegic.value.IntegerValue
22

@<SCITEGIC>MOL_PROPERTY
Delta U+W
SciTegic.value.DoubleValue
0.731

@<SCITEGIC>MOL_PROPERTY
U+W
SciTegic.value.DoubleValue
-11.047

@<SCITEGIC>MOL_PROPERTY
Grad RMS
SciTegic.value.DoubleValue
0.000000

@<SCITEGIC>MOL_PROPERTY
U
SciTegic.value.DoubleValue
47.078

@<SCITEGIC>MOL_PROPERTY
W
SciTegic.value.DoubleValue
-58.125

@<SCITEGIC>MOL_PROPERTY
W(PB)
SciTegic.value.DoubleValue
-60.031

@<SCITEGIC>MOL_PROPERTY
W(SA)
SciTegic.value.DoubleValue
1.906

@<SCITEGIC>MOL_PROPERTY
Valence
SciTegic.value.DoubleValue
2.039

@<SCITEGIC>MOL_PROPERTY
Coulomb
SciTegic.value.DoubleValue
44.655

@<SCITEGIC>MOL_PROPERTY
VdW
SciTegic.value.DoubleValue
0.383

@<SCITEGIC>MOL_PROPERTY
VdW6
SciTegic.value.DoubleValue
-4.913

@<SCITEGIC>MOL_PROPERTY
VdW12
SciTegic.value.DoubleValue
5.296

@<SCITEGIC>MOL_PROPERTY
Bond
SciTegic.value.DoubleValue
0.159

@<SCITEGIC>MOL_PROPERTY
Angle
SciTegic.value.DoubleValue
0.856

@<SCITEGIC>MOL_PROPERTY
Pdih
SciTegic.value.DoubleValue
1.024

@<SCITEGIC>MOL_PROPERTY
Idih
SciTegic.value.DoubleValue
0.000

@<SCITEGIC>MOL_PROPERTY
Tether
SciTegic.value.DoubleValue
0.000

@<TRIPOS>MOLECULE
guest-s11_confgen4.mol2 : confsearch ligand conformer 824
          20          19           1
SMALL
USER_CHARGES
 
@<TRIPOS>ATOM
       1    N1      17.458385   19.333389   22.926051 N.4        1 MOL1        -0.5919
       2    H1      17.086834   18.968815   22.043232 H          1 MOL1         0.3682
       3    H2      17.141120   18.703178   23.669346 H          1 MOL1         0.3682
       4    H3      17.003572   20.237829   23.089225 H          1 MOL1         0.3682
       5    C1      18.968318   19.459166   22.896177 C.3        1 MOL1         0.0252
       6    H4      19.292058   19.877097   23.853215 H          1 MOL1         0.0971
       7    H5      19.226592   20.164828   22.103332 H          1 MOL1         0.0971
       8    C2      19.681422   18.118201   22.647243 C.3        1 MOL1        -0.1369
       9    H6      19.320225   17.384845   23.380488 H          1 MOL1         0.0997
      10    H7      19.399716   17.732387   21.658520 H          1 MOL1         0.0997
      11    C3      21.225487   18.198486   22.753690 C.3        1 MOL1        -0.1329
      12    H8      21.616670   17.176806   22.650266 H          1 MOL1         0.0997
      13    H9      21.519287   18.528019   23.759891 H          1 MOL1         0.0997
      14    C4      21.909063   19.083933   21.679494 C.3        1 MOL1        -0.1305
      15    H10     22.922979   18.696055   21.507365 H          1 MOL1         0.0997
      16    H11     21.383890   18.991523   20.718560 H          1 MOL1         0.0997
      17    C5      22.034717   20.572444   22.081217 C.3        1 MOL1        -0.2320
      18    H12     21.059361   21.059410   22.183288 H          1 MOL1         0.1008
      19    H13     22.570330   20.679442   23.033412 H          1 MOL1         0.1008
      20    H14     22.598580   21.126759   21.319786 H          1 MOL1         0.1008
@<TRIPOS>BOND
    1     1     2    1
    2     1     3    1
    3     1     4    1
    4     1     5    1
    5     5     6    1
    6     5     7    1
    7     5     8    1
    8     8     9    1
    9     8    10    1
   10     8    11    1
   11    11    12    1
   12    11    13    1
   13    11    14    1
   14    14    15    1
   15    14    16    1
   16    14    17    1
   17    17    18    1
   18    17    19    1
   19    17    20    1
@<TRIPOS>SUBSTRUCTURE
       1 MOL1            1 RESIDUE      1      MOL     
@<SCITEGIC>MOL_PROPERTY
VConf Rank
SciTegic.value.IntegerValue
824

@<SCITEGIC>MOL_PROPERTY
Conf_Id
SciTegic.value.IntegerValue
61

@<SCITEGIC>MOL_PROPERTY
Delta U+W
SciTegic.value.DoubleValue
2.669

@<SCITEGIC>MOL_PROPERTY
U+W
SciTegic.value.DoubleValue
-9.108

@<SCITEGIC>MOL_PROPERTY
Grad RMS
SciTegic.value.DoubleValue
0.000000

@<SCITEGIC>MOL_PROPERTY
U
SciTegic.value.DoubleValue
48.916

@<SCITEGIC>MOL_PROPERTY
W
SciTegic.value.DoubleValue
-58.025

@<SCITEGIC>MOL_PROPERTY
W(PB)
SciTegic.value.DoubleValue
-59.935

@<SCITEGIC>MOL_PROPERTY
W(SA)
SciTegic.value.DoubleValue
1.911

@<SCITEGIC>MOL_PROPERTY
Valence
SciTegic.value.DoubleValue
3.785

@<SCITEGIC>MOL_PROPERTY
Coulomb
SciTegic.value.DoubleValue
44.716

@<SCITEGIC>MOL_PROPERTY
VdW
SciTegic.value.DoubleValue
0.415

@<SCITEGIC>MOL_PROPERTY
VdW6
SciTegic.value.DoubleValue
-4.836

@<SCITEGIC>MOL_PROPERTY
VdW12
SciTegic.value.DoubleValue
5.251

@<SCITEGIC>MOL_PROPERTY
Bond
SciTegic.value.DoubleValue
0.175

@<SCITEGIC>MOL_PROPERTY
Angle
SciTegic.value.DoubleValue
1.195

@<SCITEGIC>MOL_PROPERTY
Pdih
SciTegic.value.DoubleValue
2.415

@<SCITEGIC>MOL_PROPERTY
Idih
SciTegic.value.DoubleValue
0.000

@<SCITEGIC>MOL_PROPERTY
Tether
SciTegic.value.DoubleValue
0.000

@<TRIPOS>MOLECULE
guest-s11_confgen4.mol2 : confsearch ligand conformer 825
          20          19           1
SMALL
USER_CHARGES
 
@<TRIPOS>ATOM
       1    N1      21.742025   20.042836   21.122882 N.4        1 MOL1        -0.5919
       2    H1      22.506549   19.875047   20.460318 H          1 MOL1         0.3682
       3    H2      21.740897   21.047333   21.326075 H          1 MOL1         0.3682
       4    H3      21.985318   19.559283   21.991219 H          1 MOL1         0.3682
       5    C1      20.407821   19.579204   20.570145 C.3        1 MOL1         0.0252
       6    H4      20.484521   18.518111   20.318082 H          1 MOL1         0.0971
       7    H5      20.236958   20.134851   19.644066 H          1 MOL1         0.0971
       8    C2      19.212156   19.807320   21.518735 C.3        1 MOL1        -0.1369
       9    H6      19.286458   20.797915   21.986726 H          1 MOL1         0.0997
      10    H7      18.300742   19.831634   20.906687 H          1 MOL1         0.0997
      11    C3      19.028478   18.711208   22.599739 C.3        1 MOL1        -0.1329
      12    H8      18.897372   17.734979   22.112652 H          1 MOL1         0.0997
      13    H9      18.090545   18.913408   23.135350 H          1 MOL1         0.0997
      14    C4      20.181245   18.624172   23.627292 C.3        1 MOL1        -0.1305
      15    H10     21.097942   18.275427   23.135464 H          1 MOL1         0.0997
      16    H11     20.389808   19.621027   24.040479 H          1 MOL1         0.0997
      17    C5      19.843030   17.654896   24.780172 C.3        1 MOL1        -0.2320
      18    H12     20.674273   17.597152   25.494841 H          1 MOL1         0.1008
      19    H13     18.951619   17.987276   25.328016 H          1 MOL1         0.1008
      20    H14     19.653541   16.641952   24.401611 H          1 MOL1         0.1008
@<TRIPOS>BOND
    1     1     2    1
    2     1     3    1
    3     1     4    1
    4     1     5    1
    5     5     6    1
    6     5     7    1
    7     5     8    1
    8     8     9    1
    9     8    10    1
   10     8    11    1
   11    11    12    1
   12    11    13    1
   13    11    14    1
   14    14    15    1
   15    14    16    1
   16    14    17    1
   17    17    18    1
   18    17    19    1
   19    17    20    1
@<TRIPOS>SUBSTRUCTURE
       1 MOL1            1 RESIDUE      1      MOL     
@<SCITEGIC>MOL_PROPERTY
VConf Rank
SciTegic.value.IntegerValue
825

@<SCITEGIC>MOL_PROPERTY
Conf_Id
SciTegic.value.IntegerValue
69

@<SCITEGIC>MOL_PROPERTY
Delta U+W
SciTegic.value.DoubleValue
2.811

@<SCITEGIC>MOL_PROPERTY
U+W
SciTegic.value.DoubleValue
-8.967

@<SCITEGIC>MOL_PROPERTY
Grad RMS
SciTegic.value.DoubleValue
0.000000

@<SCITEGIC>MOL_PROPERTY
U
SciTegic.value.DoubleValue
49.216

@<SCITEGIC>MOL_PROPERTY
W
SciTegic.value.DoubleValue
-58.183

@<SCITEGIC>MOL_PROPERTY
W(PB)
SciTegic.value.DoubleValue
-60.064

@<SCITEGIC>MOL_PROPERTY
W(SA)
SciTegic.value.DoubleValue
1.881

@<SCITEGIC>MOL_PROPERTY
Valence
SciTegic.value.DoubleValue
2.929

@<SCITEGIC>MOL_PROPERTY
Coulomb
SciTegic.value.DoubleValue
46.006

@<SCITEGIC>MOL_PROPERTY
VdW
SciTegic.value.DoubleValue
0.281

@<SCITEGIC>MOL_PROPERTY
VdW6
SciTegic.value.DoubleValue
-4.909

@<SCITEGIC>MOL_PROPERTY
VdW12
SciTegic.value.DoubleValue
5.190

@<SCITEGIC>MOL_PROPERTY
Bond
SciTegic.value.DoubleValue
0.156

@<SCITEGIC>MOL_PROPERTY
Angle
SciTegic.value.DoubleValue
0.974

@<SCITEGIC>MOL_PROPERTY
Pdih
SciTegic.value.DoubleValue
1.799

@<SCITEGIC>MOL_PROPERTY
Idih
SciTegic.value.DoubleValue
0.000

@<SCITEGIC>MOL_PROPERTY
Tether
SciTegic.value.DoubleValue
0.000

@<TRIPOS>MOLECULE
guest-s11_confgen4.mol2 : confsearch ligand conformer 826
          20          19           1
SMALL
USER_CHARGES
 
@<TRIPOS>ATOM
       1    N1      21.038303   21.222545   22.780309 N.4        1 MOL1        -0.5919
       2    H1      21.410208   20.575885   22.079919 H          1 MOL1         0.3682
       3    H2      20.484139   21.924539   22.279899 H          1 MOL1         0.3682
       4    H3      21.838817   21.714367   23.191322 H          1 MOL1         0.3682
       5    C1      20.217662   20.505468   23.835258 C.3        1 MOL1         0.0252
       6    H4      19.874446   21.265758   24.542166 H          1 MOL1         0.0971
       7    H5      20.870451   19.813465   24.374087 H          1 MOL1         0.0971
       8    C2      18.992880   19.747060   23.281901 C.3        1 MOL1        -0.1369
       9    H6      18.275625   19.626433   24.104619 H          1 MOL1         0.0997
      10    H7      18.482397   20.357440   22.525160 H          1 MOL1         0.0997
      11    C3      19.308152   18.338039   22.717067 C.3        1 MOL1        -0.1329
      12    H8      18.356462   17.851253   22.462501 H          1 MOL1         0.0997
      13    H9      19.765097   17.722017   23.503949 H          1 MOL1         0.0997
      14    C4      20.219225   18.337148   21.467164 C.3        1 MOL1        -0.1305
      15    H10     19.824105   19.035450   20.716032 H          1 MOL1         0.0997
      16    H11     21.226188   18.680476   21.735500 H          1 MOL1         0.0997
      17    C5      20.329879   16.928500   20.845486 C.3        1 MOL1        -0.2320
      18    H12     19.347126   16.559345   20.524326 H          1 MOL1         0.1008
      19    H13     20.986868   16.943114   19.966166 H          1 MOL1         0.1008
      20    H14     20.746043   16.211084   21.564786 H          1 MOL1         0.1008
@<TRIPOS>BOND
    1     1     2    1
    2     1     3    1
    3     1     4    1
    4     1     5    1
    5     5     6    1
    6     5     7    1
    7     5     8    1
    8     8     9    1
    9     8    10    1
   10     8    11    1
   11    11    12    1
   12    11    13    1
   13    11    14    1
   14    14    15    1
   15    14    16    1
   16    14    17    1
   17    17    18    1
   18    17    19    1
   19    17    20    1
@<TRIPOS>SUBSTRUCTURE
       1 MOL1            1 RESIDUE      1      MOL     
@<SCITEGIC>MOL_PROPERTY
VConf Rank
SciTegic.value.IntegerValue
826

@<SCITEGIC>MOL_PROPERTY
Conf_Id
SciTegic.value.IntegerValue
26

@<SCITEGIC>MOL_PROPERTY
Delta U+W
SciTegic.value.DoubleValue
2.809

@<SCITEGIC>MOL_PROPERTY
U+W
SciTegic.value.DoubleValue
-8.969

@<SCITEGIC>MOL_PROPERTY
Grad RMS
SciTegic.value.DoubleValue
0.000000

@<SCITEGIC>MOL_PROPERTY
U
SciTegic.value.DoubleValue
49.216

@<SCITEGIC>MOL_PROPERTY
W
SciTegic.value.DoubleValue
-58.185

@<SCITEGIC>MOL_PROPERTY
W(PB)
SciTegic.value.DoubleValue
-60.088

@<SCITEGIC>MOL_PROPERTY
W(SA)
SciTegic.value.DoubleValue
1.903

@<SCITEGIC>MOL_PROPERTY
Valence
SciTegic.value.DoubleValue
2.929

@<SCITEGIC>MOL_PROPERTY
Coulomb
SciTegic.value.DoubleValue
46.006

@<SCITEGIC>MOL_PROPERTY
VdW
SciTegic.value.DoubleValue
0.281

@<SCITEGIC>MOL_PROPERTY
VdW6
SciTegic.value.DoubleValue
-4.909

@<SCITEGIC>MOL_PROPERTY
VdW12
SciTegic.value.DoubleValue
5.190

@<SCITEGIC>MOL_PROPERTY
Bond
SciTegic.value.DoubleValue
0.156

@<SCITEGIC>MOL_PROPERTY
Angle
SciTegic.value.DoubleValue
0.974

@<SCITEGIC>MOL_PROPERTY
Pdih
SciTegic.value.DoubleValue
1.799

@<SCITEGIC>MOL_PROPERTY
Idih
SciTegic.value.DoubleValue
0.000

@<SCITEGIC>MOL_PROPERTY
Tether
SciTegic.value.DoubleValue
0.000

@<TRIPOS>MOLECULE
guest-s11_confgen4.mol2 : confsearch ligand conformer 827
          20          19           1
SMALL
USER_CHARGES
 
@<TRIPOS>ATOM
       1    N1      20.392854   21.523284   21.947138 N.4        1 MOL1        -0.5919
       2    H1      19.610682   21.176996   21.383907 H          1 MOL1         0.3682
       3    H2      20.008570   22.196125   22.617696 H          1 MOL1         0.3682
       4    H3      21.008019   22.048286   21.316857 H          1 MOL1         0.3682
       5    C1      21.128226   20.393271   22.640896 C.3        1 MOL1         0.0252
       6    H4      21.963575   20.830132   23.194838 H          1 MOL1         0.0971
       7    H5      21.539289   19.733052   21.872737 H          1 MOL1         0.0971
       8    C2      20.243612   19.579220   23.606852 C.3        1 MOL1        -0.1369
       9    H6      20.869234   18.837256   24.119314 H          1 MOL1         0.0997
      10    H7      19.863652   20.244700   24.393239 H          1 MOL1         0.0997
      11    C3      19.048867   18.867226   22.919361 C.3        1 MOL1        -0.1329
      12    H8      18.340750   19.620789   22.549334 H          1 MOL1         0.0997
      13    H9      18.499229   18.289476   23.675207 H          1 MOL1         0.0997
      14    C4      19.437753   17.926764   21.750032 C.3        1 MOL1        -0.1305
      15    H10     18.519693   17.496410   21.325988 H          1 MOL1         0.0997
      16    H11     19.903918   18.501605   20.938401 H          1 MOL1         0.0997
      17    C5      20.376542   16.775141   22.175805 C.3        1 MOL1        -0.2320
      18    H12     19.940438   16.193994   22.998632 H          1 MOL1         0.1008
      19    H13     20.549764   16.089797   21.336053 H          1 MOL1         0.1008
      20    H14     21.354205   17.151869   22.501153 H          1 MOL1         0.1008
@<TRIPOS>BOND
    1     1     2    1
    2     1     3    1
    3     1     4    1
    4     1     5    1
    5     5     6    1
    6     5     7    1
    7     5     8    1
    8     8     9    1
    9     8    10    1
   10     8    11    1
   11    11    12    1
   12    11    13    1
   13    11    14    1
   14    14    15    1
   15    14    16    1
   16    14    17    1
   17    17    18    1
   18    17    19    1
   19    17    20    1
@<TRIPOS>SUBSTRUCTURE
       1 MOL1            1 RESIDUE      1      MOL     
@<SCITEGIC>MOL_PROPERTY
VConf Rank
SciTegic.value.IntegerValue
827

@<SCITEGIC>MOL_PROPERTY
Conf_Id
SciTegic.value.IntegerValue
2

@<SCITEGIC>MOL_PROPERTY
Delta U+W
SciTegic.value.DoubleValue
0.994

@<SCITEGIC>MOL_PROPERTY
U+W
SciTegic.value.DoubleValue
-10.784

@<SCITEGIC>MOL_PROPERTY
Grad RMS
SciTegic.value.DoubleValue
0.000000

@<SCITEGIC>MOL_PROPERTY
U
SciTegic.value.DoubleValue
47.562

@<SCITEGIC>MOL_PROPERTY
W
SciTegic.value.DoubleValue
-58.346

@<SCITEGIC>MOL_PROPERTY
W(PB)
SciTegic.value.DoubleValue
-60.221

@<SCITEGIC>MOL_PROPERTY
W(SA)
SciTegic.value.DoubleValue
1.875

@<SCITEGIC>MOL_PROPERTY
Valence
SciTegic.value.DoubleValue
2.149

@<SCITEGIC>MOL_PROPERTY
Coulomb
SciTegic.value.DoubleValue
45.034

@<SCITEGIC>MOL_PROPERTY
VdW
SciTegic.value.DoubleValue
0.378

@<SCITEGIC>MOL_PROPERTY
VdW6
SciTegic.value.DoubleValue
-5.599

@<SCITEGIC>MOL_PROPERTY
VdW12
SciTegic.value.DoubleValue
5.977

@<SCITEGIC>MOL_PROPERTY
Bond
SciTegic.value.DoubleValue
0.185

@<SCITEGIC>MOL_PROPERTY
Angle
SciTegic.value.DoubleValue
0.935

@<SCITEGIC>MOL_PROPERTY
Pdih
SciTegic.value.DoubleValue
1.028

@<SCITEGIC>MOL_PROPERTY
Idih
SciTegic.value.DoubleValue
0.000

@<SCITEGIC>MOL_PROPERTY
Tether
SciTegic.value.DoubleValue
0.000

@<TRIPOS>MOLECULE
guest-s11_confgen4.mol2 : confsearch ligand conformer 828
          20          19           1
SMALL
USER_CHARGES
 
@<TRIPOS>ATOM
       1    N1      20.324040   21.479766   22.172164 N.4        1 MOL1        -0.5919
       2    H1      19.508056   22.037295   22.443033 H          1 MOL1         0.3682
       3    H2      20.831003   21.248099   23.031385 H          1 MOL1         0.3682
       4    H3      20.933301   22.091619   21.619221 H          1 MOL1         0.3682
       5    C1      19.926312   20.235383   21.402542 C.3        1 MOL1         0.0252
       6    H4      20.839120   19.706247   21.116659 H          1 MOL1         0.0971
       7    H5      19.420331   20.556866   20.488136 H          1 MOL1         0.0971
       8    C2      19.001703   19.287203   22.192694 C.3        1 MOL1        -0.1369
       9    H6      18.074197   19.817840   22.445270 H          1 MOL1         0.0997
      10    H7      18.703294   18.457846   21.538743 H          1 MOL1         0.0997
      11    C3      19.637276   18.723844   23.491026 C.3        1 MOL1        -0.1329
      12    H8      18.922502   18.037390   23.965451 H          1 MOL1         0.0997
      13    H9      19.783645   19.542163   24.208756 H          1 MOL1         0.0997
      14    C4      20.985842   17.986799   23.288117 C.3        1 MOL1        -0.1305
      15    H10     21.744920   18.681407   22.903649 H          1 MOL1         0.0997
      16    H11     21.352977   17.651254   24.268153 H          1 MOL1         0.0997
      17    C5      20.880366   16.762606   22.350532 C.3        1 MOL1        -0.2320
      18    H12     20.626273   17.060838   21.325789 H          1 MOL1         0.1008
      19    H13     21.836800   16.225478   22.310358 H          1 MOL1         0.1008
      20    H14     20.115256   16.059333   22.704048 H          1 MOL1         0.1008
@<TRIPOS>BOND
    1     1     2    1
    2     1     3    1
    3     1     4    1
    4     1     5    1
    5     5     6    1
    6     5     7    1
    7     5     8    1
    8     8     9    1
    9     8    10    1
   10     8    11    1
   11    11    12    1
   12    11    13    1
   13    11    14    1
   14    14    15    1
   15    14    16    1
   16    14    17    1
   17    17    18    1
   18    17    19    1
   19    17    20    1
@<TRIPOS>SUBSTRUCTURE
       1 MOL1            1 RESIDUE      1      MOL     
@<SCITEGIC>MOL_PROPERTY
VConf Rank
SciTegic.value.IntegerValue
828

@<SCITEGIC>MOL_PROPERTY
Conf_Id
SciTegic.value.IntegerValue
1

@<SCITEGIC>MOL_PROPERTY
Delta U+W
SciTegic.value.DoubleValue
1.032

@<SCITEGIC>MOL_PROPERTY
U+W
SciTegic.value.DoubleValue
-10.746

@<SCITEGIC>MOL_PROPERTY
Grad RMS
SciTegic.value.DoubleValue
0.000000

@<SCITEGIC>MOL_PROPERTY
U
SciTegic.value.DoubleValue
47.562

@<SCITEGIC>MOL_PROPERTY
W
SciTegic.value.DoubleValue
-58.308

@<SCITEGIC>MOL_PROPERTY
W(PB)
SciTegic.value.DoubleValue
-60.184

@<SCITEGIC>MOL_PROPERTY
W(SA)
SciTegic.value.DoubleValue
1.877

@<SCITEGIC>MOL_PROPERTY
Valence
SciTegic.value.DoubleValue
2.149

@<SCITEGIC>MOL_PROPERTY
Coulomb
SciTegic.value.DoubleValue
45.035

@<SCITEGIC>MOL_PROPERTY
VdW
SciTegic.value.DoubleValue
0.378

@<SCITEGIC>MOL_PROPERTY
VdW6
SciTegic.value.DoubleValue
-5.599

@<SCITEGIC>MOL_PROPERTY
VdW12
SciTegic.value.DoubleValue
5.978

@<SCITEGIC>MOL_PROPERTY
Bond
SciTegic.value.DoubleValue
0.185

@<SCITEGIC>MOL_PROPERTY
Angle
SciTegic.value.DoubleValue
0.935

@<SCITEGIC>MOL_PROPERTY
Pdih
SciTegic.value.DoubleValue
1.028

@<SCITEGIC>MOL_PROPERTY
Idih
SciTegic.value.DoubleValue
0.000

@<SCITEGIC>MOL_PROPERTY
Tether
SciTegic.value.DoubleValue
0.000

@<TRIPOS>MOLECULE
guest-s11_confgen4.mol2 : confsearch ligand conformer 829
          20          19           1
SMALL
USER_CHARGES
 
@<TRIPOS>ATOM
       1    N1      18.474249   19.678918   23.911391 N.4        1 MOL1        -0.5919
       2    H1      18.194594   20.661860   23.986945 H          1 MOL1         0.3682
       3    H2      18.076139   19.316916   23.040101 H          1 MOL1         0.3682
       4    H3      18.016076   19.178775   24.680339 H          1 MOL1         0.3682
       5    C1      19.981408   19.516085   23.952794 C.3        1 MOL1         0.0252
       6    H4      20.205900   18.449650   23.899501 H          1 MOL1         0.0971
       7    H5      20.324818   19.883663   24.923609 H          1 MOL1         0.0971
       8    C2      20.721910   20.277747   22.832865 C.3        1 MOL1        -0.1369
       9    H6      20.462225   21.341497   22.915444 H          1 MOL1         0.0997
      10    H7      21.804374   20.218558   23.007189 H          1 MOL1         0.0997
      11    C3      20.399106   19.792512   21.393883 C.3        1 MOL1        -0.1329
      12    H8      20.617115   20.619002   20.703369 H          1 MOL1         0.0997
      13    H9      19.325024   19.595417   21.283322 H          1 MOL1         0.0997
      14    C4      21.215007   18.563383   20.916829 C.3        1 MOL1        -0.1305
      15    H10     20.968269   18.374456   19.862612 H          1 MOL1         0.0997
      16    H11     22.288079   18.799661   20.938533 H          1 MOL1         0.0997
      17    C5      20.957670   17.269342   21.720052 C.3        1 MOL1        -0.2320
      18    H12     19.883322   17.065729   21.815331 H          1 MOL1         0.1008
      19    H13     21.418195   16.409520   21.216512 H          1 MOL1         0.1008
      20    H14     21.395807   17.328069   22.723367 H          1 MOL1         0.1008
@<TRIPOS>BOND
    1     1     2    1
    2     1     3    1
    3     1     4    1
    4     1     5    1
    5     5     6    1
    6     5     7    1
    7     5     8    1
    8     8     9    1
    9     8    10    1
   10     8    11    1
   11    11    12    1
   12    11    13    1
   13    11    14    1
   14    14    15    1
   15    14    16    1
   16    14    17    1
   17    17    18    1
   18    17    19    1
   19    17    20    1
@<TRIPOS>SUBSTRUCTURE
       1 MOL1            1 RESIDUE      1      MOL     
@<SCITEGIC>MOL_PROPERTY
VConf Rank
SciTegic.value.IntegerValue
829

@<SCITEGIC>MOL_PROPERTY
Conf_Id
SciTegic.value.IntegerValue
80

@<SCITEGIC>MOL_PROPERTY
Delta U+W
SciTegic.value.DoubleValue
2.920

@<SCITEGIC>MOL_PROPERTY
U+W
SciTegic.value.DoubleValue
-8.857

@<SCITEGIC>MOL_PROPERTY
Grad RMS
SciTegic.value.DoubleValue
0.000000

@<SCITEGIC>MOL_PROPERTY
U
SciTegic.value.DoubleValue
49.434

@<SCITEGIC>MOL_PROPERTY
W
SciTegic.value.DoubleValue
-58.292

@<SCITEGIC>MOL_PROPERTY
W(PB)
SciTegic.value.DoubleValue
-60.170

@<SCITEGIC>MOL_PROPERTY
W(SA)
SciTegic.value.DoubleValue
1.879

@<SCITEGIC>MOL_PROPERTY
Valence
SciTegic.value.DoubleValue
3.798

@<SCITEGIC>MOL_PROPERTY
Coulomb
SciTegic.value.DoubleValue
45.253

@<SCITEGIC>MOL_PROPERTY
VdW
SciTegic.value.DoubleValue
0.384

@<SCITEGIC>MOL_PROPERTY
VdW6
SciTegic.value.DoubleValue
-5.595

@<SCITEGIC>MOL_PROPERTY
VdW12
SciTegic.value.DoubleValue
5.979

@<SCITEGIC>MOL_PROPERTY
Bond
SciTegic.value.DoubleValue
0.198

@<SCITEGIC>MOL_PROPERTY
Angle
SciTegic.value.DoubleValue
1.368

@<SCITEGIC>MOL_PROPERTY
Pdih
SciTegic.value.DoubleValue
2.231

@<SCITEGIC>MOL_PROPERTY
Idih
SciTegic.value.DoubleValue
0.000

@<SCITEGIC>MOL_PROPERTY
Tether
SciTegic.value.DoubleValue
0.000

@<TRIPOS>MOLECULE
guest-s11_confgen4.mol2 : confsearch ligand conformer 830
          20          19           1
SMALL
USER_CHARGES
 
@<TRIPOS>ATOM
       1    N1      21.686608   20.997855   22.422682 N.4        1 MOL1        -0.5919
       2    H1      21.751187   21.614404   23.238640 H          1 MOL1         0.3682
       3    H2      22.486949   21.216206   21.820084 H          1 MOL1         0.3682
       4    H3      20.842843   21.264803   21.907429 H          1 MOL1         0.3682
       5    C1      21.664464   19.534792   22.821072 C.3        1 MOL1         0.0252
       6    H4      22.609978   19.317473   23.325351 H          1 MOL1         0.0971
       7    H5      21.626494   18.938358   21.908196 H          1 MOL1         0.0971
       8    C2      20.494830   19.160794   23.756385 C.3        1 MOL1        -0.1369
       9    H6      20.621864   18.126250   24.101639 H          1 MOL1         0.0997
      10    H7      20.563833   19.787873   24.655178 H          1 MOL1         0.0997
      11    C3      19.083582   19.331690   23.132288 C.3        1 MOL1        -0.1329
      12    H8      19.025812   20.262949   22.554240 H          1 MOL1         0.0997
      13    H9      18.364677   19.453020   23.954407 H          1 MOL1         0.0997
      14    C4      18.599704   18.139962   22.266442 C.3        1 MOL1        -0.1305
      15    H10     18.567860   17.226860   22.877190 H          1 MOL1         0.0997
      16    H11     17.562315   18.335470   21.960586 H          1 MOL1         0.0997
      17    C5      19.443923   17.881011   20.999096 C.3        1 MOL1        -0.2320
      18    H12     20.424938   17.461456   21.251355 H          1 MOL1         0.1008
      19    H13     18.940667   17.155646   20.346786 H          1 MOL1         0.1008
      20    H14     19.592002   18.803375   20.422834 H          1 MOL1         0.1008
@<TRIPOS>BOND
    1     1     2    1
    2     1     3    1
    3     1     4    1
    4     1     5    1
    5     5     6    1
    6     5     7    1
    7     5     8    1
    8     8     9    1
    9     8    10    1
   10     8    11    1
   11    11    12    1
   12    11    13    1
   13    11    14    1
   14    14    15    1
   15    14    16    1
   16    14    17    1
   17    17    18    1
   18    17    19    1
   19    17    20    1
@<TRIPOS>SUBSTRUCTURE
       1 MOL1            1 RESIDUE      1      MOL     
@<SCITEGIC>MOL_PROPERTY
VConf Rank
SciTegic.value.IntegerValue
830

@<SCITEGIC>MOL_PROPERTY
Conf_Id
SciTegic.value.IntegerValue
65

@<SCITEGIC>MOL_PROPERTY
Delta U+W
SciTegic.value.DoubleValue
2.949

@<SCITEGIC>MOL_PROPERTY
U+W
SciTegic.value.DoubleValue
-8.829

@<SCITEGIC>MOL_PROPERTY
Grad RMS
SciTegic.value.DoubleValue
0.000000

@<SCITEGIC>MOL_PROPERTY
U
SciTegic.value.DoubleValue
49.435

@<SCITEGIC>MOL_PROPERTY
W
SciTegic.value.DoubleValue
-58.263

@<SCITEGIC>MOL_PROPERTY
W(PB)
SciTegic.value.DoubleValue
-60.125

@<SCITEGIC>MOL_PROPERTY
W(SA)
SciTegic.value.DoubleValue
1.862

@<SCITEGIC>MOL_PROPERTY
Valence
SciTegic.value.DoubleValue
3.797

@<SCITEGIC>MOL_PROPERTY
Coulomb
SciTegic.value.DoubleValue
45.253

@<SCITEGIC>MOL_PROPERTY
VdW
SciTegic.value.DoubleValue
0.384

@<SCITEGIC>MOL_PROPERTY
VdW6
SciTegic.value.DoubleValue
-5.596

@<SCITEGIC>MOL_PROPERTY
VdW12
SciTegic.value.DoubleValue
5.980

@<SCITEGIC>MOL_PROPERTY
Bond
SciTegic.value.DoubleValue
0.198

@<SCITEGIC>MOL_PROPERTY
Angle
SciTegic.value.DoubleValue
1.369

@<SCITEGIC>MOL_PROPERTY
Pdih
SciTegic.value.DoubleValue
2.230

@<SCITEGIC>MOL_PROPERTY
Idih
SciTegic.value.DoubleValue
0.000

@<SCITEGIC>MOL_PROPERTY
Tether
SciTegic.value.DoubleValue
0.000

@<TRIPOS>MOLECULE
guest-s11_confgen4.mol2 : confsearch ligand conformer 831
          20          19           1
SMALL
USER_CHARGES
 
@<TRIPOS>ATOM
       1    N1      18.238848   18.618085   22.546997 N.4        1 MOL1        -0.5919
       2    H1      17.422453   18.757613   23.151740 H          1 MOL1         0.3682
       3    H2      18.492143   19.532027   22.159342 H          1 MOL1         0.3682
       4    H3      17.933713   18.029269   21.765592 H          1 MOL1         0.3682
       5    C1      19.398700   17.996256   23.300407 C.3        1 MOL1         0.0252
       6    H4      19.052772   17.030489   23.678756 H          1 MOL1         0.0971
       7    H5      19.639811   18.629821   24.158114 H          1 MOL1         0.0971
       8    C2      20.659613   17.777360   22.439830 C.3        1 MOL1        -0.1369
       9    H6      21.253081   16.984079   22.913446 H          1 MOL1         0.0997
      10    H7      20.373742   17.387585   21.453848 H          1 MOL1         0.0997
      11    C3      21.574676   19.021023   22.279135 C.3        1 MOL1        -0.1329
      12    H8      22.452393   18.709458   21.695985 H          1 MOL1         0.0997
      13    H9      21.967262   19.326197   23.259039 H          1 MOL1         0.0997
      14    C4      20.929533   20.234958   21.563124 C.3        1 MOL1        -0.1305
      15    H10     21.698705   20.731865   20.955081 H          1 MOL1         0.0997
      16    H11     20.163032   19.898928   20.851912 H          1 MOL1         0.0997
      17    C5      20.352929   21.283141   22.544276 C.3        1 MOL1        -0.2320
      18    H12     19.624896   20.851295   23.239311 H          1 MOL1         0.1008
      19    H13     21.154958   21.731393   23.145226 H          1 MOL1         0.1008
      20    H14     19.858168   22.095376   21.995946 H          1 MOL1         0.1008
@<TRIPOS>BOND
    1     1     2    1
    2     1     3    1
    3     1     4    1
    4     1     5    1
    5     5     6    1
    6     5     7    1
    7     5     8    1
    8     8     9    1
    9     8    10    1
   10     8    11    1
   11    11    12    1
   12    11    13    1
   13    11    14    1
   14    14    15    1
   15    14    16    1
   16    14    17    1
   17    17    18    1
   18    17    19    1
   19    17    20    1
@<TRIPOS>SUBSTRUCTURE
       1 MOL1            1 RESIDUE      1      MOL     
@<SCITEGIC>MOL_PROPERTY
VConf Rank
SciTegic.value.IntegerValue
831

@<SCITEGIC>MOL_PROPERTY
Conf_Id
SciTegic.value.IntegerValue
77

@<SCITEGIC>MOL_PROPERTY
Delta U+W
SciTegic.value.DoubleValue
5.366

@<SCITEGIC>MOL_PROPERTY
U+W
SciTegic.value.DoubleValue
-6.412

@<SCITEGIC>MOL_PROPERTY
Grad RMS
SciTegic.value.DoubleValue
0.000000

@<SCITEGIC>MOL_PROPERTY
U
SciTegic.value.DoubleValue
51.542

@<SCITEGIC>MOL_PROPERTY
W
SciTegic.value.DoubleValue
-57.954

@<SCITEGIC>MOL_PROPERTY
W(PB)
SciTegic.value.DoubleValue
-59.811

@<SCITEGIC>MOL_PROPERTY
W(SA)
SciTegic.value.DoubleValue
1.857

@<SCITEGIC>MOL_PROPERTY
Valence
SciTegic.value.DoubleValue
5.347

@<SCITEGIC>MOL_PROPERTY
Coulomb
SciTegic.value.DoubleValue
45.870

@<SCITEGIC>MOL_PROPERTY
VdW
SciTegic.value.DoubleValue
0.325

@<SCITEGIC>MOL_PROPERTY
VdW6
SciTegic.value.DoubleValue
-6.161

@<SCITEGIC>MOL_PROPERTY
VdW12
SciTegic.value.DoubleValue
6.486

@<SCITEGIC>MOL_PROPERTY
Bond
SciTegic.value.DoubleValue
0.201

@<SCITEGIC>MOL_PROPERTY
Angle
SciTegic.value.DoubleValue
1.484

@<SCITEGIC>MOL_PROPERTY
Pdih
SciTegic.value.DoubleValue
3.662

@<SCITEGIC>MOL_PROPERTY
Idih
SciTegic.value.DoubleValue
0.000

@<SCITEGIC>MOL_PROPERTY
Tether
SciTegic.value.DoubleValue
0.000

@<TRIPOS>MOLECULE
guest-s11_confgen4.mol2 : confsearch ligand conformer 832
          20          19           1
SMALL
USER_CHARGES
 
@<TRIPOS>ATOM
       1    N1      18.707170   17.758290   22.625704 N.4        1 MOL1        -0.5919
       2    H1      18.597524   17.335524   23.552878 H          1 MOL1         0.3682
       3    H2      18.575333   18.768576   22.733715 H          1 MOL1         0.3682
       4    H3      17.936718   17.409236   22.045835 H          1 MOL1         0.3682
       5    C1      20.059379   17.438864   22.018201 C.3        1 MOL1         0.0252
       6    H4      20.097716   17.856278   21.008500 H          1 MOL1         0.0971
       7    H5      20.124369   16.350358   21.937887 H          1 MOL1         0.0971
       8    C2      21.255105   17.954933   22.844230 C.3        1 MOL1        -0.1369
       9    H6      21.076146   17.771506   23.912002 H          1 MOL1         0.0997
      10    H7      22.130391   17.346845   22.579819 H          1 MOL1         0.0997
      11    C3      21.625916   19.444319   22.611649 C.3        1 MOL1        -0.1329
      12    H8      21.935015   19.594678   21.567946 H          1 MOL1         0.0997
      13    H9      22.518813   19.658302   23.215364 H          1 MOL1         0.0997
      14    C4      20.530335   20.471533   22.995124 C.3        1 MOL1        -0.1305
      15    H10     19.903433   20.079719   23.807367 H          1 MOL1         0.0997
      16    H11     21.018449   21.367143   23.404866 H          1 MOL1         0.0997
      17    C5      19.664464   20.914232   21.791752 C.3        1 MOL1        -0.2320
      18    H12     18.868853   21.596768   22.117834 H          1 MOL1         0.1008
      19    H13     20.275446   21.448805   21.052661 H          1 MOL1         0.1008
      20    H14     19.195298   20.067960   21.278624 H          1 MOL1         0.1008
@<TRIPOS>BOND
    1     1     2    1
    2     1     3    1
    3     1     4    1
    4     1     5    1
    5     5     6    1
    6     5     7    1
    7     5     8    1
    8     8     9    1
    9     8    10    1
   10     8    11    1
   11    11    12    1
   12    11    13    1
   13    11    14    1
   14    14    15    1
   15    14    16    1
   16    14    17    1
   17    17    18    1
   18    17    19    1
   19    17    20    1
@<TRIPOS>SUBSTRUCTURE
       1 MOL1            1 RESIDUE      1      MOL     
@<SCITEGIC>MOL_PROPERTY
VConf Rank
SciTegic.value.IntegerValue
832

@<SCITEGIC>MOL_PROPERTY
Conf_Id
SciTegic.value.IntegerValue
67

@<SCITEGIC>MOL_PROPERTY
Delta U+W
SciTegic.value.DoubleValue
5.353

@<SCITEGIC>MOL_PROPERTY
U+W
SciTegic.value.DoubleValue
-6.425

@<SCITEGIC>MOL_PROPERTY
Grad RMS
SciTegic.value.DoubleValue
0.000000

@<SCITEGIC>MOL_PROPERTY
U
SciTegic.value.DoubleValue
51.541

@<SCITEGIC>MOL_PROPERTY
W
SciTegic.value.DoubleValue
-57.966

@<SCITEGIC>MOL_PROPERTY
W(PB)
SciTegic.value.DoubleValue
-59.821

@<SCITEGIC>MOL_PROPERTY
W(SA)
SciTegic.value.DoubleValue
1.855

@<SCITEGIC>MOL_PROPERTY
Valence
SciTegic.value.DoubleValue
5.347

@<SCITEGIC>MOL_PROPERTY
Coulomb
SciTegic.value.DoubleValue
45.870

@<SCITEGIC>MOL_PROPERTY
VdW
SciTegic.value.DoubleValue
0.325

@<SCITEGIC>MOL_PROPERTY
VdW6
SciTegic.value.DoubleValue
-6.161

@<SCITEGIC>MOL_PROPERTY
VdW12
SciTegic.value.DoubleValue
6.486

@<SCITEGIC>MOL_PROPERTY
Bond
SciTegic.value.DoubleValue
0.201

@<SCITEGIC>MOL_PROPERTY
Angle
SciTegic.value.DoubleValue
1.485

@<SCITEGIC>MOL_PROPERTY
Pdih
SciTegic.value.DoubleValue
3.662

@<SCITEGIC>MOL_PROPERTY
Idih
SciTegic.value.DoubleValue
0.000

@<SCITEGIC>MOL_PROPERTY
Tether
SciTegic.value.DoubleValue
0.000

@<TRIPOS>MOLECULE
guest-s11_confgen4.mol2 : confsearch ligand conformer 833
          20          19           1
SMALL
USER_CHARGES
 
@<TRIPOS>ATOM
       1    N1      18.012886   16.772086   22.932336 N.4        1 MOL1        -0.5919
       2    H1      17.333971   17.051863   22.217363 H          1 MOL1         0.3682
       3    H2      18.014617   15.746873   22.955450 H          1 MOL1         0.3682
       4    H3      17.646816   17.088876   23.835677 H          1 MOL1         0.3682
       5    C1      19.393290   17.331346   22.652692 C.3        1 MOL1         0.0252
       6    H4      19.732034   16.930230   21.693590 H          1 MOL1         0.0971
       7    H5      20.068293   16.970191   23.433367 H          1 MOL1         0.0971
       8    C2      19.425709   18.869684   22.611084 C.3        1 MOL1        -0.1369
       9    H6      18.734575   19.228445   21.836687 H          1 MOL1         0.0997
      10    H7      19.069675   19.268286   23.570471 H          1 MOL1         0.0997
      11    C3      20.848695   19.398240   22.323904 C.3        1 MOL1        -0.1329
      12    H8      21.203791   18.993311   21.365922 H          1 MOL1         0.0997
      13    H9      21.538482   19.033180   23.097672 H          1 MOL1         0.0997
      14    C4      20.893342   20.942128   22.279725 C.3        1 MOL1        -0.1305
      15    H10     20.206198   21.311491   21.505481 H          1 MOL1         0.0997
      16    H11     20.540940   21.351361   23.237007 H          1 MOL1         0.0997
      17    C5      22.316865   21.465620   21.992467 C.3        1 MOL1        -0.2320
      18    H12     22.684025   21.100854   21.024296 H          1 MOL1         0.1008
      19    H13     22.328231   22.562960   21.964924 H          1 MOL1         0.1008
      20    H14     23.021356   21.141160   22.769404 H          1 MOL1         0.1008
@<TRIPOS>BOND
    1     1     2    1
    2     1     3    1
    3     1     4    1
    4     1     5    1
    5     5     6    1
    6     5     7    1
    7     5     8    1
    8     8     9    1
    9     8    10    1
   10     8    11    1
   11    11    12    1
   12    11    13    1
   13    11    14    1
   14    14    15    1
   15    14    16    1
   16    14    17    1
   17    17    18    1
   18    17    19    1
   19    17    20    1
@<TRIPOS>SUBSTRUCTURE
       1 MOL1            1 RESIDUE      1      MOL     
@<SCITEGIC>MOL_PROPERTY
VConf Rank
SciTegic.value.IntegerValue
833

@<SCITEGIC>MOL_PROPERTY
Conf_Id
SciTegic.value.IntegerValue
72

@<SCITEGIC>MOL_PROPERTY
Delta U+W
SciTegic.value.DoubleValue
0.000

@<SCITEGIC>MOL_PROPERTY
U+W
SciTegic.value.DoubleValue
-11.778

@<SCITEGIC>MOL_PROPERTY
Grad RMS
SciTegic.value.DoubleValue
0.000000

@<SCITEGIC>MOL_PROPERTY
U
SciTegic.value.DoubleValue
45.772

@<SCITEGIC>MOL_PROPERTY
W
SciTegic.value.DoubleValue
-57.550

@<SCITEGIC>MOL_PROPERTY
W(PB)
SciTegic.value.DoubleValue
-59.511

@<SCITEGIC>MOL_PROPERTY
W(SA)
SciTegic.value.DoubleValue
1.961

@<SCITEGIC>MOL_PROPERTY
Valence
SciTegic.value.DoubleValue
1.299

@<SCITEGIC>MOL_PROPERTY
Coulomb
SciTegic.value.DoubleValue
44.177

@<SCITEGIC>MOL_PROPERTY
VdW
SciTegic.value.DoubleValue
0.297

@<SCITEGIC>MOL_PROPERTY
VdW6
SciTegic.value.DoubleValue
-3.490

@<SCITEGIC>MOL_PROPERTY
VdW12
SciTegic.value.DoubleValue
3.786

@<SCITEGIC>MOL_PROPERTY
Bond
SciTegic.value.DoubleValue
0.096

@<SCITEGIC>MOL_PROPERTY
Angle
SciTegic.value.DoubleValue
0.381

@<SCITEGIC>MOL_PROPERTY
Pdih
SciTegic.value.DoubleValue
0.822

@<SCITEGIC>MOL_PROPERTY
Idih
SciTegic.value.DoubleValue
0.000

@<SCITEGIC>MOL_PROPERTY
Tether
SciTegic.value.DoubleValue
0.000

@<TRIPOS>MOLECULE
guest-s11_confgen4.mol2 : confsearch ligand conformer 834
          20          19           1
SMALL
USER_CHARGES
 
@<TRIPOS>ATOM
       1    N1      18.713209   17.452095   20.452758 N.4        1 MOL1        -0.5919
       2    H1      19.606132   17.213141   20.010123 H          1 MOL1         0.3682
       3    H2      18.469730   16.677125   21.077662 H          1 MOL1         0.3682
       4    H3      18.007412   17.467050   19.708979 H          1 MOL1         0.3682
       5    C1      18.782098   18.774251   21.190141 C.3        1 MOL1         0.0252
       6    H4      17.792909   18.979125   21.608500 H          1 MOL1         0.0971
       7    H5      19.015048   19.555459   20.461475 H          1 MOL1         0.0971
       8    C2      19.832625   18.785852   22.315097 C.3        1 MOL1        -0.1369
       9    H6      19.603971   17.989696   23.035974 H          1 MOL1         0.0997
      10    H7      20.817742   18.561776   21.886841 H          1 MOL1         0.0997
      11    C3      19.866585   20.151580   23.040881 C.3        1 MOL1        -0.1329
      12    H8      18.854973   20.393344   23.395749 H          1 MOL1         0.0997
      13    H9      20.140815   20.942421   22.328874 H          1 MOL1         0.0997
      14    C4      20.833485   20.185195   24.249453 C.3        1 MOL1        -0.1305
      15    H10     20.718386   21.148215   24.766448 H          1 MOL1         0.0997
      16    H11     20.548154   19.411181   24.975651 H          1 MOL1         0.0997
      17    C5      22.317331   20.006077   23.854933 C.3        1 MOL1        -0.2320
      18    H12     22.620338   20.751090   23.107834 H          1 MOL1         0.1008
      19    H13     22.965487   20.128595   24.732336 H          1 MOL1         0.1008
      20    H14     22.507599   19.007630   23.442228 H          1 MOL1         0.1008
@<TRIPOS>BOND
    1     1     2    1
    2     1     3    1
    3     1     4    1
    4     1     5    1
    5     5     6    1
    6     5     7    1
    7     5     8    1
    8     8     9    1
    9     8    10    1
   10     8    11    1
   11    11    12    1
   12    11    13    1
   13    11    14    1
   14    14    15    1
   15    14    16    1
   16    14    17    1
   17    17    18    1
   18    17    19    1
   19    17    20    1
@<TRIPOS>SUBSTRUCTURE
       1 MOL1            1 RESIDUE      1      MOL     
@<SCITEGIC>MOL_PROPERTY
VConf Rank
SciTegic.value.IntegerValue
834

@<SCITEGIC>MOL_PROPERTY
Conf_Id
SciTegic.value.IntegerValue
42

@<SCITEGIC>MOL_PROPERTY
Delta U+W
SciTegic.value.DoubleValue
0.508

@<SCITEGIC>MOL_PROPERTY
U+W
SciTegic.value.DoubleValue
-11.270

@<SCITEGIC>MOL_PROPERTY
Grad RMS
SciTegic.value.DoubleValue
0.000000

@<SCITEGIC>MOL_PROPERTY
U
SciTegic.value.DoubleValue
46.486

@<SCITEGIC>MOL_PROPERTY
W
SciTegic.value.DoubleValue
-57.756

@<SCITEGIC>MOL_PROPERTY
W(PB)
SciTegic.value.DoubleValue
-59.705

@<SCITEGIC>MOL_PROPERTY
W(SA)
SciTegic.value.DoubleValue
1.949

@<SCITEGIC>MOL_PROPERTY
Valence
SciTegic.value.DoubleValue
1.806

@<SCITEGIC>MOL_PROPERTY
Coulomb
SciTegic.value.DoubleValue
44.248

@<SCITEGIC>MOL_PROPERTY
VdW
SciTegic.value.DoubleValue
0.433

@<SCITEGIC>MOL_PROPERTY
VdW6
SciTegic.value.DoubleValue
-4.089

@<SCITEGIC>MOL_PROPERTY
VdW12
SciTegic.value.DoubleValue
4.522

@<SCITEGIC>MOL_PROPERTY
Bond
SciTegic.value.DoubleValue
0.131

@<SCITEGIC>MOL_PROPERTY
Angle
SciTegic.value.DoubleValue
0.628

@<SCITEGIC>MOL_PROPERTY
Pdih
SciTegic.value.DoubleValue
1.047

@<SCITEGIC>MOL_PROPERTY
Idih
SciTegic.value.DoubleValue
0.000

@<SCITEGIC>MOL_PROPERTY
Tether
SciTegic.value.DoubleValue
0.000

@<TRIPOS>MOLECULE
guest-s11_confgen4.mol2 : confsearch ligand conformer 835
          20          19           1
SMALL
USER_CHARGES
 
@<TRIPOS>ATOM
       1    N1      18.416810   17.628909   24.471422 N.4        1 MOL1        -0.5919
       2    H1      18.907080   17.927956   25.320286 H          1 MOL1         0.3682
       3    H2      17.652153   18.293168   24.315235 H          1 MOL1         0.3682
       4    H3      17.985068   16.722738   24.681263 H          1 MOL1         0.3682
       5    C1      19.348069   17.546107   23.278743 C.3        1 MOL1         0.0252
       6    H4      18.767974   17.194382   22.421255 H          1 MOL1         0.0971
       7    H5      20.116651   16.801153   23.501948 H          1 MOL1         0.0971
       8    C2      20.014234   18.890856   22.936479 C.3        1 MOL1        -0.1369
       9    H6      19.233927   19.634721   22.731903 H          1 MOL1         0.0997
      10    H7      20.582588   19.248046   23.805502 H          1 MOL1         0.0997
      11    C3      20.956212   18.759188   21.716449 C.3        1 MOL1        -0.1329
      12    H8      20.379061   18.446156   20.835260 H          1 MOL1         0.0997
      13    H9      21.682490   17.957471   21.910134 H          1 MOL1         0.0997
      14    C4      21.732309   20.058810   21.391908 C.3        1 MOL1        -0.1305
      15    H10     22.329827   20.362515   22.262892 H          1 MOL1         0.0997
      16    H11     22.449517   19.849289   20.585898 H          1 MOL1         0.0997
      17    C5      20.819463   21.227242   20.954860 C.3        1 MOL1        -0.2320
      18    H12     20.163985   21.554584   21.771327 H          1 MOL1         0.1008
      19    H13     21.422428   22.092306   20.649822 H          1 MOL1         0.1008
      20    H14     20.190496   20.939818   20.102332 H          1 MOL1         0.1008
@<TRIPOS>BOND
    1     1     2    1
    2     1     3    1
    3     1     4    1
    4     1     5    1
    5     5     6    1
    6     5     7    1
    7     5     8    1
    8     8     9    1
    9     8    10    1
   10     8    11    1
   11    11    12    1
   12    11    13    1
   13    11    14    1
   14    14    15    1
   15    14    16    1
   16    14    17    1
   17    17    18    1
   18    17    19    1
   19    17    20    1
@<TRIPOS>SUBSTRUCTURE
       1 MOL1            1 RESIDUE      1      MOL     
@<SCITEGIC>MOL_PROPERTY
VConf Rank
SciTegic.value.IntegerValue
835

@<SCITEGIC>MOL_PROPERTY
Conf_Id
SciTegic.value.IntegerValue
41

@<SCITEGIC>MOL_PROPERTY
Delta U+W
SciTegic.value.DoubleValue
0.515

@<SCITEGIC>MOL_PROPERTY
U+W
SciTegic.value.DoubleValue
-11.263

@<SCITEGIC>MOL_PROPERTY
Grad RMS
SciTegic.value.DoubleValue
0.000000

@<SCITEGIC>MOL_PROPERTY
U
SciTegic.value.DoubleValue
46.486

@<SCITEGIC>MOL_PROPERTY
W
SciTegic.value.DoubleValue
-57.749

@<SCITEGIC>MOL_PROPERTY
W(PB)
SciTegic.value.DoubleValue
-59.685

@<SCITEGIC>MOL_PROPERTY
W(SA)
SciTegic.value.DoubleValue
1.936

@<SCITEGIC>MOL_PROPERTY
Valence
SciTegic.value.DoubleValue
1.806

@<SCITEGIC>MOL_PROPERTY
Coulomb
SciTegic.value.DoubleValue
44.248

@<SCITEGIC>MOL_PROPERTY
VdW
SciTegic.value.DoubleValue
0.433

@<SCITEGIC>MOL_PROPERTY
VdW6
SciTegic.value.DoubleValue
-4.089

@<SCITEGIC>MOL_PROPERTY
VdW12
SciTegic.value.DoubleValue
4.522

@<SCITEGIC>MOL_PROPERTY
Bond
SciTegic.value.DoubleValue
0.131

@<SCITEGIC>MOL_PROPERTY
Angle
SciTegic.value.DoubleValue
0.628

@<SCITEGIC>MOL_PROPERTY
Pdih
SciTegic.value.DoubleValue
1.047

@<SCITEGIC>MOL_PROPERTY
Idih
SciTegic.value.DoubleValue
0.000

@<SCITEGIC>MOL_PROPERTY
Tether
SciTegic.value.DoubleValue
0.000

@<TRIPOS>MOLECULE
guest-s11_confgen4.mol2 : confsearch ligand conformer 836
          20          19           1
SMALL
USER_CHARGES
 
@<TRIPOS>ATOM
       1    N1      17.814989   17.714525   21.994652 N.4        1 MOL1        -0.5919
       2    H1      17.235494   16.873539   22.086465 H          1 MOL1         0.3682
       3    H2      17.544090   18.347376   22.752976 H          1 MOL1         0.3682
       4    H3      17.547967   18.165333   21.113933 H          1 MOL1         0.3682
       5    C1      19.294883   17.385175   22.034699 C.3        1 MOL1         0.0252
       6    H4      19.497396   16.675651   21.227752 H          1 MOL1         0.0971
       7    H5      19.507058   16.888167   22.985176 H          1 MOL1         0.0971
       8    C2      20.212770   18.613156   21.875273 C.3        1 MOL1        -0.1369
       9    H6      21.246952   18.254962   21.799295 H          1 MOL1         0.0997
      10    H7      19.985364   19.120098   20.928180 H          1 MOL1         0.0997
      11    C3      20.089161   19.610026   23.055140 C.3        1 MOL1        -0.1329
      12    H8      20.340192   19.101753   23.996474 H          1 MOL1         0.0997
      13    H9      19.045246   19.937044   23.149521 H          1 MOL1         0.0997
      14    C4      20.976823   20.868312   22.894662 C.3        1 MOL1        -0.1305
      15    H10     20.720058   21.387984   21.960918 H          1 MOL1         0.0997
      16    H11     20.744937   21.568878   23.709141 H          1 MOL1         0.0997
      17    C5      22.491793   20.561721   22.919760 C.3        1 MOL1        -0.2320
      18    H12     22.797859   19.964821   22.051830 H          1 MOL1         0.1008
      19    H13     23.072268   21.493160   22.899318 H          1 MOL1         0.1008
      20    H14     22.769230   20.014067   23.829764 H          1 MOL1         0.1008
@<TRIPOS>BOND
    1     1     2    1
    2     1     3    1
    3     1     4    1
    4     1     5    1
    5     5     6    1
    6     5     7    1
    7     5     8    1
    8     8     9    1
    9     8    10    1
   10     8    11    1
   11    11    12    1
   12    11    13    1
   13    11    14    1
   14    14    15    1
   15    14    16    1
   16    14    17    1
   17    17    18    1
   18    17    19    1
   19    17    20    1
@<TRIPOS>SUBSTRUCTURE
       1 MOL1            1 RESIDUE      1      MOL     
@<SCITEGIC>MOL_PROPERTY
VConf Rank
SciTegic.value.IntegerValue
836

@<SCITEGIC>MOL_PROPERTY
Conf_Id
SciTegic.value.IntegerValue
33

@<SCITEGIC>MOL_PROPERTY
Delta U+W
SciTegic.value.DoubleValue
0.703

@<SCITEGIC>MOL_PROPERTY
U+W
SciTegic.value.DoubleValue
-11.075

@<SCITEGIC>MOL_PROPERTY
Grad RMS
SciTegic.value.DoubleValue
0.000000

@<SCITEGIC>MOL_PROPERTY
U
SciTegic.value.DoubleValue
47.080

@<SCITEGIC>MOL_PROPERTY
W
SciTegic.value.DoubleValue
-58.154

@<SCITEGIC>MOL_PROPERTY
W(PB)
SciTegic.value.DoubleValue
-60.053

@<SCITEGIC>MOL_PROPERTY
W(SA)
SciTegic.value.DoubleValue
1.899

@<SCITEGIC>MOL_PROPERTY
Valence
SciTegic.value.DoubleValue
1.943

@<SCITEGIC>MOL_PROPERTY
Coulomb
SciTegic.value.DoubleValue
44.572

@<SCITEGIC>MOL_PROPERTY
VdW
SciTegic.value.DoubleValue
0.565

@<SCITEGIC>MOL_PROPERTY
VdW6
SciTegic.value.DoubleValue
-4.575

@<SCITEGIC>MOL_PROPERTY
VdW12
SciTegic.value.DoubleValue
5.139

@<SCITEGIC>MOL_PROPERTY
Bond
SciTegic.value.DoubleValue
0.158

@<SCITEGIC>MOL_PROPERTY
Angle
SciTegic.value.DoubleValue
0.700

@<SCITEGIC>MOL_PROPERTY
Pdih
SciTegic.value.DoubleValue
1.085

@<SCITEGIC>MOL_PROPERTY
Idih
SciTegic.value.DoubleValue
0.000

@<SCITEGIC>MOL_PROPERTY
Tether
SciTegic.value.DoubleValue
0.000

@<TRIPOS>MOLECULE
guest-s11_confgen4.mol2 : confsearch ligand conformer 837
          20          19           1
SMALL
USER_CHARGES
 
@<TRIPOS>ATOM
       1    N1      21.760515   20.724802   24.042109 N.4        1 MOL1        -0.5919
       2    H1      22.647534   20.921952   24.517323 H          1 MOL1         0.3682
       3    H2      21.342339   21.629810   23.804870 H          1 MOL1         0.3682
       4    H3      21.146656   20.278653   24.729908 H          1 MOL1         0.3682
       5    C1      21.960508   19.855928   22.815234 C.3        1 MOL1         0.0252
       6    H4      22.428792   18.920618   23.133589 H          1 MOL1         0.0971
       7    H5      22.657112   20.376031   22.152034 H          1 MOL1         0.0971
       8    C2      20.659353   19.549555   22.047775 C.3        1 MOL1        -0.1369
       9    H6      20.182459   20.491002   21.744555 H          1 MOL1         0.0997
      10    H7      20.927606   19.021715   21.124176 H          1 MOL1         0.0997
      11    C3      19.666323   18.691624   22.871766 C.3        1 MOL1        -0.1329
      12    H8      19.429657   19.207912   23.811471 H          1 MOL1         0.0997
      13    H9      20.142624   17.741934   23.152292 H          1 MOL1         0.0997
      14    C4      18.337709   18.404237   22.130706 C.3        1 MOL1        -0.1305
      15    H10     17.652467   17.893665   22.821865 H          1 MOL1         0.0997
      16    H11     17.850483   19.351406   21.859878 H          1 MOL1         0.0997
      17    C5      18.512374   17.529432   20.868179 C.3        1 MOL1        -0.2320
      18    H12     19.025999   16.589086   21.106809 H          1 MOL1         0.1008
      19    H13     17.534595   17.277132   20.437784 H          1 MOL1         0.1008
      20    H14     19.088348   18.049241   20.092728 H          1 MOL1         0.1008
@<TRIPOS>BOND
    1     1     2    1
    2     1     3    1
    3     1     4    1
    4     1     5    1
    5     5     6    1
    6     5     7    1
    7     5     8    1
    8     8     9    1
    9     8    10    1
   10     8    11    1
   11    11    12    1
   12    11    13    1
   13    11    14    1
   14    14    15    1
   15    14    16    1
   16    14    17    1
   17    17    18    1
   18    17    19    1
   19    17    20    1
@<TRIPOS>SUBSTRUCTURE
       1 MOL1            1 RESIDUE      1      MOL     
@<SCITEGIC>MOL_PROPERTY
VConf Rank
SciTegic.value.IntegerValue
837

@<SCITEGIC>MOL_PROPERTY
Conf_Id
SciTegic.value.IntegerValue
24

@<SCITEGIC>MOL_PROPERTY
Delta U+W
SciTegic.value.DoubleValue
0.847

@<SCITEGIC>MOL_PROPERTY
U+W
SciTegic.value.DoubleValue
-10.931

@<SCITEGIC>MOL_PROPERTY
Grad RMS
SciTegic.value.DoubleValue
0.000000

@<SCITEGIC>MOL_PROPERTY
U
SciTegic.value.DoubleValue
47.080

@<SCITEGIC>MOL_PROPERTY
W
SciTegic.value.DoubleValue
-58.011

@<SCITEGIC>MOL_PROPERTY
W(PB)
SciTegic.value.DoubleValue
-59.914

@<SCITEGIC>MOL_PROPERTY
W(SA)
SciTegic.value.DoubleValue
1.903

@<SCITEGIC>MOL_PROPERTY
Valence
SciTegic.value.DoubleValue
1.943

@<SCITEGIC>MOL_PROPERTY
Coulomb
SciTegic.value.DoubleValue
44.572

@<SCITEGIC>MOL_PROPERTY
VdW
SciTegic.value.DoubleValue
0.565

@<SCITEGIC>MOL_PROPERTY
VdW6
SciTegic.value.DoubleValue
-4.575

@<SCITEGIC>MOL_PROPERTY
VdW12
SciTegic.value.DoubleValue
5.140

@<SCITEGIC>MOL_PROPERTY
Bond
SciTegic.value.DoubleValue
0.158

@<SCITEGIC>MOL_PROPERTY
Angle
SciTegic.value.DoubleValue
0.700

@<SCITEGIC>MOL_PROPERTY
Pdih
SciTegic.value.DoubleValue
1.085

@<SCITEGIC>MOL_PROPERTY
Idih
SciTegic.value.DoubleValue
0.000

@<SCITEGIC>MOL_PROPERTY
Tether
SciTegic.value.DoubleValue
0.000

@<TRIPOS>MOLECULE
guest-s11_confgen4.mol2 : confsearch ligand conformer 838
          20          19           1
SMALL
USER_CHARGES
 
@<TRIPOS>ATOM
       1    N1      21.519280   18.768516   24.820018 N.4        1 MOL1        -0.5919
       2    H1      21.962266   17.894089   25.121067 H          1 MOL1         0.3682
       3    H2      22.272497   19.395927   24.521289 H          1 MOL1         0.3682
       4    H3      21.091377   19.186419   25.652224 H          1 MOL1         0.3682
       5    C1      20.505210   18.535899   23.718257 C.3        1 MOL1         0.0252
       6    H4      19.751453   17.838845   24.094214 H          1 MOL1         0.0971
       7    H5      21.023052   18.063161   22.879602 H          1 MOL1         0.0971
       8    C2      19.821005   19.831167   23.242054 C.3        1 MOL1        -0.1369
       9    H6      19.339455   20.319065   24.099857 H          1 MOL1         0.0997
      10    H7      20.577656   20.535195   22.872894 H          1 MOL1         0.0997
      11    C3      18.753995   19.578105   22.147776 C.3        1 MOL1        -0.1329
      12    H8      18.299852   20.537640   21.864387 H          1 MOL1         0.0997
      13    H9      17.941523   18.974037   22.574958 H          1 MOL1         0.0997
      14    C4      19.283417   18.871891   20.873336 C.3        1 MOL1        -0.1305
      15    H10     19.646245   17.864848   21.120310 H          1 MOL1         0.0997
      16    H11     18.444035   18.727375   20.178760 H          1 MOL1         0.0997
      17    C5      20.397206   19.662829   20.150217 C.3        1 MOL1        -0.2320
      18    H12     20.670503   19.168678   19.208927 H          1 MOL1         0.1008
      19    H13     20.066121   20.681590   19.910460 H          1 MOL1         0.1008
      20    H14     21.305135   19.731016   20.762304 H          1 MOL1         0.1008
@<TRIPOS>BOND
    1     1     2    1
    2     1     3    1
    3     1     4    1
    4     1     5    1
    5     5     6    1
    6     5     7    1
    7     5     8    1
    8     8     9    1
    9     8    10    1
   10     8    11    1
   11    11    12    1
   12    11    13    1
   13    11    14    1
   14    14    15    1
   15    14    16    1
   16    14    17    1
   17    17    18    1
   18    17    19    1
   19    17    20    1
@<TRIPOS>SUBSTRUCTURE
       1 MOL1            1 RESIDUE      1      MOL     
@<SCITEGIC>MOL_PROPERTY
VConf Rank
SciTegic.value.IntegerValue
838

@<SCITEGIC>MOL_PROPERTY
Conf_Id
SciTegic.value.IntegerValue
64

@<SCITEGIC>MOL_PROPERTY
Delta U+W
SciTegic.value.DoubleValue
0.707

@<SCITEGIC>MOL_PROPERTY
U+W
SciTegic.value.DoubleValue
-11.070

@<SCITEGIC>MOL_PROPERTY
Grad RMS
SciTegic.value.DoubleValue
0.000000

@<SCITEGIC>MOL_PROPERTY
U
SciTegic.value.DoubleValue
47.077

@<SCITEGIC>MOL_PROPERTY
W
SciTegic.value.DoubleValue
-58.148

@<SCITEGIC>MOL_PROPERTY
W(PB)
SciTegic.value.DoubleValue
-60.054

@<SCITEGIC>MOL_PROPERTY
W(SA)
SciTegic.value.DoubleValue
1.906

@<SCITEGIC>MOL_PROPERTY
Valence
SciTegic.value.DoubleValue
2.039

@<SCITEGIC>MOL_PROPERTY
Coulomb
SciTegic.value.DoubleValue
44.655

@<SCITEGIC>MOL_PROPERTY
VdW
SciTegic.value.DoubleValue
0.383

@<SCITEGIC>MOL_PROPERTY
VdW6
SciTegic.value.DoubleValue
-4.912

@<SCITEGIC>MOL_PROPERTY
VdW12
SciTegic.value.DoubleValue
5.295

@<SCITEGIC>MOL_PROPERTY
Bond
SciTegic.value.DoubleValue
0.159

@<SCITEGIC>MOL_PROPERTY
Angle
SciTegic.value.DoubleValue
0.856

@<SCITEGIC>MOL_PROPERTY
Pdih
SciTegic.value.DoubleValue
1.024

@<SCITEGIC>MOL_PROPERTY
Idih
SciTegic.value.DoubleValue
0.000

@<SCITEGIC>MOL_PROPERTY
Tether
SciTegic.value.DoubleValue
0.000

@<TRIPOS>MOLECULE
guest-s11_confgen4.mol2 : confsearch ligand conformer 839
          20          19           1
SMALL
USER_CHARGES
 
@<TRIPOS>ATOM
       1    N1      22.295646   20.607218   23.366492 N.4        1 MOL1        -0.5919
       2    H1      22.101493   21.138047   24.221380 H          1 MOL1         0.3682
       3    H2      22.827554   19.775853   23.642407 H          1 MOL1         0.3682
       4    H3      22.921029   21.184133   22.794169 H          1 MOL1         0.3682
       5    C1      21.025242   20.246216   22.623473 C.3        1 MOL1         0.0252
       6    H4      21.309040   19.711785   21.713073 H          1 MOL1         0.0971
       7    H5      20.526313   21.175490   22.335551 H          1 MOL1         0.0971
       8    C2      20.062965   19.378266   23.456122 C.3        1 MOL1        -0.1369
       9    H6      20.565878   18.449212   23.753430 H          1 MOL1         0.0997
      10    H7      19.817333   19.906482   24.386935 H          1 MOL1         0.0997
      11    C3      18.747831   19.051996   22.705144 C.3        1 MOL1        -0.1329
      12    H8      18.197676   19.986415   22.527142 H          1 MOL1         0.0997
      13    H9      18.106466   18.443712   23.357757 H          1 MOL1         0.0997
      14    C4      18.935488   18.318384   21.352435 C.3        1 MOL1        -0.1305
      15    H10     17.946243   18.155811   20.902050 H          1 MOL1         0.0997
      16    H11     19.485663   18.956569   20.647593 H          1 MOL1         0.0997
      17    C5      19.651242   16.955063   21.486821 C.3        1 MOL1        -0.2320
      18    H12     19.131628   16.305105   22.202736 H          1 MOL1         0.1008
      19    H13     19.675656   16.436675   20.519566 H          1 MOL1         0.1008
      20    H14     20.688829   17.076200   21.822044 H          1 MOL1         0.1008
@<TRIPOS>BOND
    1     1     2    1
    2     1     3    1
    3     1     4    1
    4     1     5    1
    5     5     6    1
    6     5     7    1
    7     5     8    1
    8     8     9    1
    9     8    10    1
   10     8    11    1
   11    11    12    1
   12    11    13    1
   13    11    14    1
   14    14    15    1
   15    14    16    1
   16    14    17    1
   17    17    18    1
   18    17    19    1
   19    17    20    1
@<TRIPOS>SUBSTRUCTURE
       1 MOL1            1 RESIDUE      1      MOL     
@<SCITEGIC>MOL_PROPERTY
VConf Rank
SciTegic.value.IntegerValue
839

@<SCITEGIC>MOL_PROPERTY
Conf_Id
SciTegic.value.IntegerValue
22

@<SCITEGIC>MOL_PROPERTY
Delta U+W
SciTegic.value.DoubleValue
0.731

@<SCITEGIC>MOL_PROPERTY
U+W
SciTegic.value.DoubleValue
-11.047

@<SCITEGIC>MOL_PROPERTY
Grad RMS
SciTegic.value.DoubleValue
0.000000

@<SCITEGIC>MOL_PROPERTY
U
SciTegic.value.DoubleValue
47.078

@<SCITEGIC>MOL_PROPERTY
W
SciTegic.value.DoubleValue
-58.125

@<SCITEGIC>MOL_PROPERTY
W(PB)
SciTegic.value.DoubleValue
-60.031

@<SCITEGIC>MOL_PROPERTY
W(SA)
SciTegic.value.DoubleValue
1.906

@<SCITEGIC>MOL_PROPERTY
Valence
SciTegic.value.DoubleValue
2.039

@<SCITEGIC>MOL_PROPERTY
Coulomb
SciTegic.value.DoubleValue
44.655

@<SCITEGIC>MOL_PROPERTY
VdW
SciTegic.value.DoubleValue
0.383

@<SCITEGIC>MOL_PROPERTY
VdW6
SciTegic.value.DoubleValue
-4.913

@<SCITEGIC>MOL_PROPERTY
VdW12
SciTegic.value.DoubleValue
5.296

@<SCITEGIC>MOL_PROPERTY
Bond
SciTegic.value.DoubleValue
0.159

@<SCITEGIC>MOL_PROPERTY
Angle
SciTegic.value.DoubleValue
0.856

@<SCITEGIC>MOL_PROPERTY
Pdih
SciTegic.value.DoubleValue
1.024

@<SCITEGIC>MOL_PROPERTY
Idih
SciTegic.value.DoubleValue
0.000

@<SCITEGIC>MOL_PROPERTY
Tether
SciTegic.value.DoubleValue
0.000

@<TRIPOS>MOLECULE
guest-s11_confgen4.mol2 : confsearch ligand conformer 840
          20          19           1
SMALL
USER_CHARGES
 
@<TRIPOS>ATOM
       1    N1      22.375821   20.770836   22.991077 N.4        1 MOL1        -0.5919
       2    H1      23.098778   20.299169   22.438629 H          1 MOL1         0.3682
       3    H2      22.282844   21.720487   22.617139 H          1 MOL1         0.3682
       4    H3      22.742037   20.861596   23.944566 H          1 MOL1         0.3682
       5    C1      21.060203   20.019234   22.961880 C.3        1 MOL1         0.0252
       6    H4      20.347364   20.560326   23.589953 H          1 MOL1         0.0971
       7    H5      21.231714   19.033523   23.400314 H          1 MOL1         0.0971
       8    C2      20.486205   19.861019   21.542667 C.3        1 MOL1        -0.1369
       9    H6      20.432189   20.851376   21.071286 H          1 MOL1         0.0997
      10    H7      21.178032   19.264919   20.932892 H          1 MOL1         0.0997
      11    C3      19.075003   19.221580   21.503401 C.3        1 MOL1        -0.1329
      12    H8      18.732084   19.243375   20.459618 H          1 MOL1         0.0997
      13    H9      18.361870   19.842751   22.062808 H          1 MOL1         0.0997
      14    C4      19.009248   17.753307   21.998418 C.3        1 MOL1        -0.1305
      15    H10     18.175664   17.253526   21.485135 H          1 MOL1         0.0997
      16    H11     19.916385   17.209340   21.700185 H          1 MOL1         0.0997
      17    C5      18.777090   17.614953   23.521506 C.3        1 MOL1        -0.2320
      18    H12     19.613537   18.010077   24.107260 H          1 MOL1         0.1008
      19    H13     17.865431   18.142660   23.830386 H          1 MOL1         0.1008
      20    H14     18.657108   16.558559   23.794675 H          1 MOL1         0.1008
@<TRIPOS>BOND
    1     1     2    1
    2     1     3    1
    3     1     4    1
    4     1     5    1
    5     5     6    1
    6     5     7    1
    7     5     8    1
    8     8     9    1
    9     8    10    1
   10     8    11    1
   11    11    12    1
   12    11    13    1
   13    11    14    1
   14    14    15    1
   15    14    16    1
   16    14    17    1
   17    17    18    1
   18    17    19    1
   19    17    20    1
@<TRIPOS>SUBSTRUCTURE
       1 MOL1            1 RESIDUE      1      MOL     
@<SCITEGIC>MOL_PROPERTY
VConf Rank
SciTegic.value.IntegerValue
840

@<SCITEGIC>MOL_PROPERTY
Conf_Id
SciTegic.value.IntegerValue
61

@<SCITEGIC>MOL_PROPERTY
Delta U+W
SciTegic.value.DoubleValue
2.669

@<SCITEGIC>MOL_PROPERTY
U+W
SciTegic.value.DoubleValue
-9.108

@<SCITEGIC>MOL_PROPERTY
Grad RMS
SciTegic.value.DoubleValue
0.000000

@<SCITEGIC>MOL_PROPERTY
U
SciTegic.value.DoubleValue
48.916

@<SCITEGIC>MOL_PROPERTY
W
SciTegic.value.DoubleValue
-58.025

@<SCITEGIC>MOL_PROPERTY
W(PB)
SciTegic.value.DoubleValue
-59.935

@<SCITEGIC>MOL_PROPERTY
W(SA)
SciTegic.value.DoubleValue
1.911

@<SCITEGIC>MOL_PROPERTY
Valence
SciTegic.value.DoubleValue
3.785

@<SCITEGIC>MOL_PROPERTY
Coulomb
SciTegic.value.DoubleValue
44.716

@<SCITEGIC>MOL_PROPERTY
VdW
SciTegic.value.DoubleValue
0.415

@<SCITEGIC>MOL_PROPERTY
VdW6
SciTegic.value.DoubleValue
-4.836

@<SCITEGIC>MOL_PROPERTY
VdW12
SciTegic.value.DoubleValue
5.251

@<SCITEGIC>MOL_PROPERTY
Bond
SciTegic.value.DoubleValue
0.175

@<SCITEGIC>MOL_PROPERTY
Angle
SciTegic.value.DoubleValue
1.195

@<SCITEGIC>MOL_PROPERTY
Pdih
SciTegic.value.DoubleValue
2.415

@<SCITEGIC>MOL_PROPERTY
Idih
SciTegic.value.DoubleValue
0.000

@<SCITEGIC>MOL_PROPERTY
Tether
SciTegic.value.DoubleValue
0.000

@<TRIPOS>MOLECULE
guest-s11_confgen4.mol2 : confsearch ligand conformer 841
          20          19           1
SMALL
USER_CHARGES
 
@<TRIPOS>ATOM
       1    N1      22.103494   18.388238   23.404203 N.4        1 MOL1        -0.5919
       2    H1      22.518642   17.857631   24.177346 H          1 MOL1         0.3682
       3    H2      22.874825   18.855886   22.917730 H          1 MOL1         0.3682
       4    H3      21.521131   19.119558   23.820194 H          1 MOL1         0.3682
       5    C1      21.310054   17.493531   22.471185 C.3        1 MOL1         0.0252
       6    H4      20.540879   16.978123   23.052615 H          1 MOL1         0.0971
       7    H5      22.003561   16.740873   22.086329 H          1 MOL1         0.0971
       8    C2      20.661000   18.231257   21.281241 C.3        1 MOL1        -0.1369
       9    H6      21.366802   18.958859   20.859040 H          1 MOL1         0.0997
      10    H7      20.480931   17.492546   20.488933 H          1 MOL1         0.0997
      11    C3      19.308882   18.916279   21.607263 C.3        1 MOL1        -0.1329
      12    H8      18.596316   18.164146   21.973338 H          1 MOL1         0.0997
      13    H9      18.887801   19.304612   20.669517 H          1 MOL1         0.0997
      14    C4      19.406202   20.074294   22.627969 C.3        1 MOL1        -0.1305
      15    H10     19.681144   19.683088   23.615500 H          1 MOL1         0.0997
      16    H11     20.194476   20.776620   22.322509 H          1 MOL1         0.0997
      17    C5      18.068184   20.833555   22.755434 C.3        1 MOL1        -0.2320
      18    H12     18.151202   21.645158   23.489914 H          1 MOL1         0.1008
      19    H13     17.772284   21.277780   21.796096 H          1 MOL1         0.1008
      20    H14     17.263488   20.162995   23.084194 H          1 MOL1         0.1008
@<TRIPOS>BOND
    1     1     2    1
    2     1     3    1
    3     1     4    1
    4     1     5    1
    5     5     6    1
    6     5     7    1
    7     5     8    1
    8     8     9    1
    9     8    10    1
   10     8    11    1
   11    11    12    1
   12    11    13    1
   13    11    14    1
   14    14    15    1
   15    14    16    1
   16    14    17    1
   17    17    18    1
   18    17    19    1
   19    17    20    1
@<TRIPOS>SUBSTRUCTURE
       1 MOL1            1 RESIDUE      1      MOL     
@<SCITEGIC>MOL_PROPERTY
VConf Rank
SciTegic.value.IntegerValue
841

@<SCITEGIC>MOL_PROPERTY
Conf_Id
SciTegic.value.IntegerValue
69

@<SCITEGIC>MOL_PROPERTY
Delta U+W
SciTegic.value.DoubleValue
2.811

@<SCITEGIC>MOL_PROPERTY
U+W
SciTegic.value.DoubleValue
-8.967

@<SCITEGIC>MOL_PROPERTY
Grad RMS
SciTegic.value.DoubleValue
0.000000

@<SCITEGIC>MOL_PROPERTY
U
SciTegic.value.DoubleValue
49.216

@<SCITEGIC>MOL_PROPERTY
W
SciTegic.value.DoubleValue
-58.183

@<SCITEGIC>MOL_PROPERTY
W(PB)
SciTegic.value.DoubleValue
-60.064

@<SCITEGIC>MOL_PROPERTY
W(SA)
SciTegic.value.DoubleValue
1.881

@<SCITEGIC>MOL_PROPERTY
Valence
SciTegic.value.DoubleValue
2.929

@<SCITEGIC>MOL_PROPERTY
Coulomb
SciTegic.value.DoubleValue
46.006

@<SCITEGIC>MOL_PROPERTY
VdW
SciTegic.value.DoubleValue
0.281

@<SCITEGIC>MOL_PROPERTY
VdW6
SciTegic.value.DoubleValue
-4.909

@<SCITEGIC>MOL_PROPERTY
VdW12
SciTegic.value.DoubleValue
5.190

@<SCITEGIC>MOL_PROPERTY
Bond
SciTegic.value.DoubleValue
0.156

@<SCITEGIC>MOL_PROPERTY
Angle
SciTegic.value.DoubleValue
0.974

@<SCITEGIC>MOL_PROPERTY
Pdih
SciTegic.value.DoubleValue
1.799

@<SCITEGIC>MOL_PROPERTY
Idih
SciTegic.value.DoubleValue
0.000

@<SCITEGIC>MOL_PROPERTY
Tether
SciTegic.value.DoubleValue
0.000

@<TRIPOS>MOLECULE
guest-s11_confgen4.mol2 : confsearch ligand conformer 842
          20          19           1
SMALL
USER_CHARGES
 
@<TRIPOS>ATOM
       1    N1      17.820593   18.882852   22.139134 N.4        1 MOL1        -0.5919
       2    H1      18.190705   19.575940   22.794629 H          1 MOL1         0.3682
       3    H2      17.539490   19.387137   21.292386 H          1 MOL1         0.3682
       4    H3      16.964408   18.501678   22.555422 H          1 MOL1         0.3682
       5    C1      18.830929   17.793066   21.835560 C.3        1 MOL1         0.0252
       6    H4      18.349287   17.096794   21.143617 H          1 MOL1         0.0971
       7    H5      19.049689   17.252835   22.760565 H          1 MOL1         0.0971
       8    C2      20.143477   18.300668   21.202287 C.3        1 MOL1        -0.1369
       9    H6      20.602123   17.459415   20.665811 H          1 MOL1         0.0997
      10    H7      19.924646   19.059964   20.439792 H          1 MOL1         0.0997
      11    C3      21.183569   18.838975   22.218262 C.3        1 MOL1        -0.1329
      12    H8      22.111233   19.060506   21.672511 H          1 MOL1         0.0997
      13    H9      21.434795   18.048218   22.938716 H          1 MOL1         0.0997
      14    C4      20.737743   20.108669   22.980775 C.3        1 MOL1        -0.1305
      15    H10     20.382842   20.867030   22.268821 H          1 MOL1         0.0997
      16    H11     19.901320   19.871227   23.650005 H          1 MOL1         0.0997
      17    C5      21.888619   20.699200   23.823257 C.3        1 MOL1        -0.2320
      18    H12     22.735623   20.989372   23.187956 H          1 MOL1         0.1008
      19    H13     21.553534   21.593164   24.365103 H          1 MOL1         0.1008
      20    H14     22.249449   19.972675   24.563010 H          1 MOL1         0.1008
@<TRIPOS>BOND
    1     1     2    1
    2     1     3    1
    3     1     4    1
    4     1     5    1
    5     5     6    1
    6     5     7    1
    7     5     8    1
    8     8     9    1
    9     8    10    1
   10     8    11    1
   11    11    12    1
   12    11    13    1
   13    11    14    1
   14    14    15    1
   15    14    16    1
   16    14    17    1
   17    17    18    1
   18    17    19    1
   19    17    20    1
@<TRIPOS>SUBSTRUCTURE
       1 MOL1            1 RESIDUE      1      MOL     
@<SCITEGIC>MOL_PROPERTY
VConf Rank
SciTegic.value.IntegerValue
842

@<SCITEGIC>MOL_PROPERTY
Conf_Id
SciTegic.value.IntegerValue
26

@<SCITEGIC>MOL_PROPERTY
Delta U+W
SciTegic.value.DoubleValue
2.809

@<SCITEGIC>MOL_PROPERTY
U+W
SciTegic.value.DoubleValue
-8.969

@<SCITEGIC>MOL_PROPERTY
Grad RMS
SciTegic.value.DoubleValue
0.000000

@<SCITEGIC>MOL_PROPERTY
U
SciTegic.value.DoubleValue
49.216

@<SCITEGIC>MOL_PROPERTY
W
SciTegic.value.DoubleValue
-58.185

@<SCITEGIC>MOL_PROPERTY
W(PB)
SciTegic.value.DoubleValue
-60.088

@<SCITEGIC>MOL_PROPERTY
W(SA)
SciTegic.value.DoubleValue
1.903

@<SCITEGIC>MOL_PROPERTY
Valence
SciTegic.value.DoubleValue
2.929

@<SCITEGIC>MOL_PROPERTY
Coulomb
SciTegic.value.DoubleValue
46.006

@<SCITEGIC>MOL_PROPERTY
VdW
SciTegic.value.DoubleValue
0.281

@<SCITEGIC>MOL_PROPERTY
VdW6
SciTegic.value.DoubleValue
-4.909

@<SCITEGIC>MOL_PROPERTY
VdW12
SciTegic.value.DoubleValue
5.190

@<SCITEGIC>MOL_PROPERTY
Bond
SciTegic.value.DoubleValue
0.156

@<SCITEGIC>MOL_PROPERTY
Angle
SciTegic.value.DoubleValue
0.974

@<SCITEGIC>MOL_PROPERTY
Pdih
SciTegic.value.DoubleValue
1.799

@<SCITEGIC>MOL_PROPERTY
Idih
SciTegic.value.DoubleValue
0.000

@<SCITEGIC>MOL_PROPERTY
Tether
SciTegic.value.DoubleValue
0.000

@<TRIPOS>MOLECULE
guest-s11_confgen4.mol2 : confsearch ligand conformer 843
          20          19           1
SMALL
USER_CHARGES
 
@<TRIPOS>ATOM
       1    N1      20.453831   21.019453   20.932101 N.4        1 MOL1        -0.5919
       2    H1      20.178217   21.420595   21.833246 H          1 MOL1         0.3682
       3    H2      21.418330   21.314711   20.751543 H          1 MOL1         0.3682
       4    H3      19.867790   21.459700   20.215130 H          1 MOL1         0.3682
       5    C1      20.315622   19.509541   20.924303 C.3        1 MOL1         0.0252
       6    H4      20.594879   19.154708   19.928503 H          1 MOL1         0.0971
       7    H5      19.263307   19.263653   21.088936 H          1 MOL1         0.0971
       8    C2      21.186397   18.802143   21.982429 C.3        1 MOL1        -0.1369
       9    H6      21.084478   17.716685   21.856241 H          1 MOL1         0.0997
      10    H7      22.243069   19.028202   21.787544 H          1 MOL1         0.0997
      11    C3      20.842418   19.190981   23.444441 C.3        1 MOL1        -0.1329
      12    H8      21.101355   20.245274   23.610648 H          1 MOL1         0.0997
      13    H9      21.486936   18.616492   24.123969 H          1 MOL1         0.0997
      14    C4      19.361586   18.968491   23.845275 C.3        1 MOL1        -0.1305
      15    H10     19.227106   19.295308   24.885927 H          1 MOL1         0.0997
      16    H11     18.703761   19.607916   23.241207 H          1 MOL1         0.0997
      17    C5      18.908218   17.495901   23.723709 C.3        1 MOL1        -0.2320
      18    H12     19.560715   16.832571   24.306121 H          1 MOL1         0.1008
      19    H13     17.884699   17.376202   24.101818 H          1 MOL1         0.1008
      20    H14     18.916157   17.156867   22.680351 H          1 MOL1         0.1008
@<TRIPOS>BOND
    1     1     2    1
    2     1     3    1
    3     1     4    1
    4     1     5    1
    5     5     6    1
    6     5     7    1
    7     5     8    1
    8     8     9    1
    9     8    10    1
   10     8    11    1
   11    11    12    1
   12    11    13    1
   13    11    14    1
   14    14    15    1
   15    14    16    1
   16    14    17    1
   17    17    18    1
   18    17    19    1
   19    17    20    1
@<TRIPOS>SUBSTRUCTURE
       1 MOL1            1 RESIDUE      1      MOL     
@<SCITEGIC>MOL_PROPERTY
VConf Rank
SciTegic.value.IntegerValue
843

@<SCITEGIC>MOL_PROPERTY
Conf_Id
SciTegic.value.IntegerValue
2

@<SCITEGIC>MOL_PROPERTY
Delta U+W
SciTegic.value.DoubleValue
0.994

@<SCITEGIC>MOL_PROPERTY
U+W
SciTegic.value.DoubleValue
-10.784

@<SCITEGIC>MOL_PROPERTY
Grad RMS
SciTegic.value.DoubleValue
0.000000

@<SCITEGIC>MOL_PROPERTY
U
SciTegic.value.DoubleValue
47.562

@<SCITEGIC>MOL_PROPERTY
W
SciTegic.value.DoubleValue
-58.346

@<SCITEGIC>MOL_PROPERTY
W(PB)
SciTegic.value.DoubleValue
-60.221

@<SCITEGIC>MOL_PROPERTY
W(SA)
SciTegic.value.DoubleValue
1.875

@<SCITEGIC>MOL_PROPERTY
Valence
SciTegic.value.DoubleValue
2.149

@<SCITEGIC>MOL_PROPERTY
Coulomb
SciTegic.value.DoubleValue
45.034

@<SCITEGIC>MOL_PROPERTY
VdW
SciTegic.value.DoubleValue
0.378

@<SCITEGIC>MOL_PROPERTY
VdW6
SciTegic.value.DoubleValue
-5.599

@<SCITEGIC>MOL_PROPERTY
VdW12
SciTegic.value.DoubleValue
5.977

@<SCITEGIC>MOL_PROPERTY
Bond
SciTegic.value.DoubleValue
0.185

@<SCITEGIC>MOL_PROPERTY
Angle
SciTegic.value.DoubleValue
0.935

@<SCITEGIC>MOL_PROPERTY
Pdih
SciTegic.value.DoubleValue
1.028

@<SCITEGIC>MOL_PROPERTY
Idih
SciTegic.value.DoubleValue
0.000

@<SCITEGIC>MOL_PROPERTY
Tether
SciTegic.value.DoubleValue
0.000

@<TRIPOS>MOLECULE
guest-s11_confgen4.mol2 : confsearch ligand conformer 844
          20          19           1
SMALL
USER_CHARGES
 
@<TRIPOS>ATOM
       1    N1      21.539772   18.829183   20.483172 N.4        1 MOL1        -0.5919
       2    H1      22.555222   18.794458   20.616190 H          1 MOL1         0.3682
       3    H2      21.172199   17.902001   20.715902 H          1 MOL1         0.3682
       4    H3      21.374800   18.975397   19.481816 H          1 MOL1         0.3682
       5    C1      20.897726   19.914729   21.324814 C.3        1 MOL1         0.0252
       6    H4      19.825462   19.920094   21.112318 H          1 MOL1         0.0971
       7    H5      21.311853   20.874185   21.003177 H          1 MOL1         0.0971
       8    C2      21.126464   19.740774   22.839973 C.3        1 MOL1        -0.1369
       9    H6      22.204495   19.770858   23.046328 H          1 MOL1         0.0997
      10    H7      20.697351   20.604377   23.363980 H          1 MOL1         0.0997
      11    C3      20.531834   18.430941   23.421133 C.3        1 MOL1        -0.1329
      12    H8      20.713240   18.410636   24.504590 H          1 MOL1         0.0997
      13    H9      21.079061   17.570777   23.012638 H          1 MOL1         0.0997
      14    C4      19.016851   18.232387   23.159524 C.3        1 MOL1        -0.1305
      15    H10     18.824247   18.152837   22.081066 H          1 MOL1         0.0997
      16    H11     18.709404   17.270170   23.592493 H          1 MOL1         0.0997
      17    C5      18.138726   19.352441   23.762196 C.3        1 MOL1        -0.2320
      18    H12     18.329723   20.318334   23.278281 H          1 MOL1         0.1008
      19    H13     17.074220   19.120793   23.627834 H          1 MOL1         0.1008
      20    H14     18.324563   19.463900   24.838301 H          1 MOL1         0.1008
@<TRIPOS>BOND
    1     1     2    1
    2     1     3    1
    3     1     4    1
    4     1     5    1
    5     5     6    1
    6     5     7    1
    7     5     8    1
    8     8     9    1
    9     8    10    1
   10     8    11    1
   11    11    12    1
   12    11    13    1
   13    11    14    1
   14    14    15    1
   15    14    16    1
   16    14    17    1
   17    17    18    1
   18    17    19    1
   19    17    20    1
@<TRIPOS>SUBSTRUCTURE
       1 MOL1            1 RESIDUE      1      MOL     
@<SCITEGIC>MOL_PROPERTY
VConf Rank
SciTegic.value.IntegerValue
844

@<SCITEGIC>MOL_PROPERTY
Conf_Id
SciTegic.value.IntegerValue
1

@<SCITEGIC>MOL_PROPERTY
Delta U+W
SciTegic.value.DoubleValue
1.032

@<SCITEGIC>MOL_PROPERTY
U+W
SciTegic.value.DoubleValue
-10.746

@<SCITEGIC>MOL_PROPERTY
Grad RMS
SciTegic.value.DoubleValue
0.000000

@<SCITEGIC>MOL_PROPERTY
U
SciTegic.value.DoubleValue
47.562

@<SCITEGIC>MOL_PROPERTY
W
SciTegic.value.DoubleValue
-58.308

@<SCITEGIC>MOL_PROPERTY
W(PB)
SciTegic.value.DoubleValue
-60.184

@<SCITEGIC>MOL_PROPERTY
W(SA)
SciTegic.value.DoubleValue
1.877

@<SCITEGIC>MOL_PROPERTY
Valence
SciTegic.value.DoubleValue
2.149

@<SCITEGIC>MOL_PROPERTY
Coulomb
SciTegic.value.DoubleValue
45.035

@<SCITEGIC>MOL_PROPERTY
VdW
SciTegic.value.DoubleValue
0.378

@<SCITEGIC>MOL_PROPERTY
VdW6
SciTegic.value.DoubleValue
-5.599

@<SCITEGIC>MOL_PROPERTY
VdW12
SciTegic.value.DoubleValue
5.978

@<SCITEGIC>MOL_PROPERTY
Bond
SciTegic.value.DoubleValue
0.185

@<SCITEGIC>MOL_PROPERTY
Angle
SciTegic.value.DoubleValue
0.935

@<SCITEGIC>MOL_PROPERTY
Pdih
SciTegic.value.DoubleValue
1.028

@<SCITEGIC>MOL_PROPERTY
Idih
SciTegic.value.DoubleValue
0.000

@<SCITEGIC>MOL_PROPERTY
Tether
SciTegic.value.DoubleValue
0.000

@<TRIPOS>MOLECULE
guest-s11_confgen4.mol2 : confsearch ligand conformer 845
          20          19           1
SMALL
USER_CHARGES
 
@<TRIPOS>ATOM
       1    N1      19.309182   17.229668   23.501218 N.4        1 MOL1        -0.5919
       2    H1      18.355005   17.286314   23.870579 H          1 MOL1         0.3682
       3    H2      19.234730   17.114466   22.486393 H          1 MOL1         0.3682
       4    H3      19.721140   16.366599   23.871012 H          1 MOL1         0.3682
       5    C1      20.130992   18.449301   23.871189 C.3        1 MOL1         0.0252
       6    H4      21.137951   18.308916   23.475150 H          1 MOL1         0.0971
       7    H5      20.200174   18.480052   24.961965 H          1 MOL1         0.0971
       8    C2      19.534946   19.779989   23.364521 C.3        1 MOL1        -0.1369
       9    H6      18.521660   19.877742   23.776243 H          1 MOL1         0.0997
      10    H7      20.110102   20.617749   23.780423 H          1 MOL1         0.0997
      11    C3      19.463952   19.913566   21.819387 C.3        1 MOL1        -0.1329
      12    H8      18.682384   20.648185   21.580827 H          1 MOL1         0.0997
      13    H9      19.128882   18.972691   21.364188 H          1 MOL1         0.0997
      14    C4      20.772898   20.393540   21.140917 C.3        1 MOL1        -0.1305
      15    H10     20.572668   20.537868   20.069925 H          1 MOL1         0.0997
      16    H11     21.052378   21.381793   21.532106 H          1 MOL1         0.0997
      17    C5      21.967262   19.425488   21.290248 C.3        1 MOL1        -0.2320
      18    H12     21.687143   18.400572   21.014857 H          1 MOL1         0.1008
      19    H13     22.793016   19.734262   20.636247 H          1 MOL1         0.1008
      20    H14     22.352822   19.421999   22.316594 H          1 MOL1         0.1008
@<TRIPOS>BOND
    1     1     2    1
    2     1     3    1
    3     1     4    1
    4     1     5    1
    5     5     6    1
    6     5     7    1
    7     5     8    1
    8     8     9    1
    9     8    10    1
   10     8    11    1
   11    11    12    1
   12    11    13    1
   13    11    14    1
   14    14    15    1
   15    14    16    1
   16    14    17    1
   17    17    18    1
   18    17    19    1
   19    17    20    1
@<TRIPOS>SUBSTRUCTURE
       1 MOL1            1 RESIDUE      1      MOL     
@<SCITEGIC>MOL_PROPERTY
VConf Rank
SciTegic.value.IntegerValue
845

@<SCITEGIC>MOL_PROPERTY
Conf_Id
SciTegic.value.IntegerValue
80

@<SCITEGIC>MOL_PROPERTY
Delta U+W
SciTegic.value.DoubleValue
2.920

@<SCITEGIC>MOL_PROPERTY
U+W
SciTegic.value.DoubleValue
-8.857

@<SCITEGIC>MOL_PROPERTY
Grad RMS
SciTegic.value.DoubleValue
0.000000

@<SCITEGIC>MOL_PROPERTY
U
SciTegic.value.DoubleValue
49.434

@<SCITEGIC>MOL_PROPERTY
W
SciTegic.value.DoubleValue
-58.292

@<SCITEGIC>MOL_PROPERTY
W(PB)
SciTegic.value.DoubleValue
-60.170

@<SCITEGIC>MOL_PROPERTY
W(SA)
SciTegic.value.DoubleValue
1.879

@<SCITEGIC>MOL_PROPERTY
Valence
SciTegic.value.DoubleValue
3.798

@<SCITEGIC>MOL_PROPERTY
Coulomb
SciTegic.value.DoubleValue
45.253

@<SCITEGIC>MOL_PROPERTY
VdW
SciTegic.value.DoubleValue
0.384

@<SCITEGIC>MOL_PROPERTY
VdW6
SciTegic.value.DoubleValue
-5.595

@<SCITEGIC>MOL_PROPERTY
VdW12
SciTegic.value.DoubleValue
5.979

@<SCITEGIC>MOL_PROPERTY
Bond
SciTegic.value.DoubleValue
0.198

@<SCITEGIC>MOL_PROPERTY
Angle
SciTegic.value.DoubleValue
1.368

@<SCITEGIC>MOL_PROPERTY
Pdih
SciTegic.value.DoubleValue
2.231

@<SCITEGIC>MOL_PROPERTY
Idih
SciTegic.value.DoubleValue
0.000

@<SCITEGIC>MOL_PROPERTY
Tether
SciTegic.value.DoubleValue
0.000

@<TRIPOS>MOLECULE
guest-s11_confgen4.mol2 : confsearch ligand conformer 846
          20          19           1
SMALL
USER_CHARGES
 
@<TRIPOS>ATOM
       1    N1      21.093912   18.812989   24.606921 N.4        1 MOL1        -0.5919
       2    H1      20.632786   19.230129   25.421445 H          1 MOL1         0.3682
       3    H2      21.759312   18.119352   24.963930 H          1 MOL1         0.3682
       4    H3      21.643694   19.551687   24.158869 H          1 MOL1         0.3682
       5    C1      20.095085   18.193731   23.648474 C.3        1 MOL1         0.0252
       6    H4      19.580488   17.391150   24.183803 H          1 MOL1         0.0971
       7    H5      20.653038   17.744002   22.825705 H          1 MOL1         0.0971
       8    C2      19.049521   19.191679   23.106604 C.3        1 MOL1        -0.1369
       9    H6      18.291210   18.646229   22.529483 H          1 MOL1         0.0997
      10    H7      18.518730   19.627344   23.963504 H          1 MOL1         0.0997
      11    C3      19.634923   20.340566   22.241915 C.3        1 MOL1        -0.1329
      12    H8      20.559679   20.728592   22.687992 H          1 MOL1         0.0997
      13    H9      18.923779   21.177803   22.268953 H          1 MOL1         0.0997
      14    C4      19.874344   19.984620   20.751941 C.3        1 MOL1        -0.1305
      15    H10     18.924969   19.688061   20.284479 H          1 MOL1         0.0997
      16    H11     20.197848   20.895084   20.228158 H          1 MOL1         0.0997
      17    C5      20.929778   18.881847   20.515556 C.3        1 MOL1        -0.2320
      18    H12     20.554411   17.897724   20.819948 H          1 MOL1         0.1008
      19    H13     21.180674   18.815880   19.448959 H          1 MOL1         0.1008
      20    H14     21.856347   19.091779   21.065244 H          1 MOL1         0.1008
@<TRIPOS>BOND
    1     1     2    1
    2     1     3    1
    3     1     4    1
    4     1     5    1
    5     5     6    1
    6     5     7    1
    7     5     8    1
    8     8     9    1
    9     8    10    1
   10     8    11    1
   11    11    12    1
   12    11    13    1
   13    11    14    1
   14    14    15    1
   15    14    16    1
   16    14    17    1
   17    17    18    1
   18    17    19    1
   19    17    20    1
@<TRIPOS>SUBSTRUCTURE
       1 MOL1            1 RESIDUE      1      MOL     
@<SCITEGIC>MOL_PROPERTY
VConf Rank
SciTegic.value.IntegerValue
846

@<SCITEGIC>MOL_PROPERTY
Conf_Id
SciTegic.value.IntegerValue
65

@<SCITEGIC>MOL_PROPERTY
Delta U+W
SciTegic.value.DoubleValue
2.949

@<SCITEGIC>MOL_PROPERTY
U+W
SciTegic.value.DoubleValue
-8.829

@<SCITEGIC>MOL_PROPERTY
Grad RMS
SciTegic.value.DoubleValue
0.000000

@<SCITEGIC>MOL_PROPERTY
U
SciTegic.value.DoubleValue
49.435

@<SCITEGIC>MOL_PROPERTY
W
SciTegic.value.DoubleValue
-58.263

@<SCITEGIC>MOL_PROPERTY
W(PB)
SciTegic.value.DoubleValue
-60.125

@<SCITEGIC>MOL_PROPERTY
W(SA)
SciTegic.value.DoubleValue
1.862

@<SCITEGIC>MOL_PROPERTY
Valence
SciTegic.value.DoubleValue
3.797

@<SCITEGIC>MOL_PROPERTY
Coulomb
SciTegic.value.DoubleValue
45.253

@<SCITEGIC>MOL_PROPERTY
VdW
SciTegic.value.DoubleValue
0.384

@<SCITEGIC>MOL_PROPERTY
VdW6
SciTegic.value.DoubleValue
-5.596

@<SCITEGIC>MOL_PROPERTY
VdW12
SciTegic.value.DoubleValue
5.980

@<SCITEGIC>MOL_PROPERTY
Bond
SciTegic.value.DoubleValue
0.198

@<SCITEGIC>MOL_PROPERTY
Angle
SciTegic.value.DoubleValue
1.369

@<SCITEGIC>MOL_PROPERTY
Pdih
SciTegic.value.DoubleValue
2.230

@<SCITEGIC>MOL_PROPERTY
Idih
SciTegic.value.DoubleValue
0.000

@<SCITEGIC>MOL_PROPERTY
Tether
SciTegic.value.DoubleValue
0.000

@<TRIPOS>MOLECULE
guest-s11_confgen4.mol2 : confsearch ligand conformer 847
          20          19           1
SMALL
USER_CHARGES
 
@<TRIPOS>ATOM
       1    N1      21.091779   19.268675   24.167245 N.4        1 MOL1        -0.5919
       2    H1      21.393231   18.601104   24.884990 H          1 MOL1         0.3682
       3    H2      21.544669   18.998618   23.288789 H          1 MOL1         0.3682
       4    H3      21.467128   20.183965   24.435134 H          1 MOL1         0.3682
       5    C1      19.582394   19.299575   24.024569 C.3        1 MOL1         0.0252
       6    H4      19.175787   19.595791   24.995366 H          1 MOL1         0.0971
       7    H5      19.230190   18.288464   23.803645 H          1 MOL1         0.0971
       8    C2      19.074811   20.278461   22.946351 C.3        1 MOL1        -0.1369
       9    H6      18.037439   20.539379   23.194528 H          1 MOL1         0.0997
      10    H7      19.640064   21.218266   23.001696 H          1 MOL1         0.0997
      11    C3      19.090214   19.729143   21.494500 C.3        1 MOL1        -0.1329
      12    H8      18.655582   20.502764   20.846325 H          1 MOL1         0.0997
      13    H9      18.415125   18.865911   21.413556 H          1 MOL1         0.0997
      14    C4      20.488926   19.364806   20.934692 C.3        1 MOL1        -0.1305
      15    H10     20.512372   19.611633   19.863812 H          1 MOL1         0.0997
      16    H11     21.263457   19.990324   21.398472 H          1 MOL1         0.0997
      17    C5      20.829526   17.862653   21.080792 C.3        1 MOL1        -0.2320
      18    H12     20.759057   17.515379   22.117147 H          1 MOL1         0.1008
      19    H13     20.142018   17.251078   20.481934 H          1 MOL1         0.1008
      20    H14     21.847657   17.660228   20.723563 H          1 MOL1         0.1008
@<TRIPOS>BOND
    1     1     2    1
    2     1     3    1
    3     1     4    1
    4     1     5    1
    5     5     6    1
    6     5     7    1
    7     5     8    1
    8     8     9    1
    9     8    10    1
   10     8    11    1
   11    11    12    1
   12    11    13    1
   13    11    14    1
   14    14    15    1
   15    14    16    1
   16    14    17    1
   17    17    18    1
   18    17    19    1
   19    17    20    1
@<TRIPOS>SUBSTRUCTURE
       1 MOL1            1 RESIDUE      1      MOL     
@<SCITEGIC>MOL_PROPERTY
VConf Rank
SciTegic.value.IntegerValue
847

@<SCITEGIC>MOL_PROPERTY
Conf_Id
SciTegic.value.IntegerValue
77

@<SCITEGIC>MOL_PROPERTY
Delta U+W
SciTegic.value.DoubleValue
5.366

@<SCITEGIC>MOL_PROPERTY
U+W
SciTegic.value.DoubleValue
-6.412

@<SCITEGIC>MOL_PROPERTY
Grad RMS
SciTegic.value.DoubleValue
0.000000

@<SCITEGIC>MOL_PROPERTY
U
SciTegic.value.DoubleValue
51.542

@<SCITEGIC>MOL_PROPERTY
W
SciTegic.value.DoubleValue
-57.954

@<SCITEGIC>MOL_PROPERTY
W(PB)
SciTegic.value.DoubleValue
-59.811

@<SCITEGIC>MOL_PROPERTY
W(SA)
SciTegic.value.DoubleValue
1.857

@<SCITEGIC>MOL_PROPERTY
Valence
SciTegic.value.DoubleValue
5.347

@<SCITEGIC>MOL_PROPERTY
Coulomb
SciTegic.value.DoubleValue
45.870

@<SCITEGIC>MOL_PROPERTY
VdW
SciTegic.value.DoubleValue
0.325

@<SCITEGIC>MOL_PROPERTY
VdW6
SciTegic.value.DoubleValue
-6.161

@<SCITEGIC>MOL_PROPERTY
VdW12
SciTegic.value.DoubleValue
6.486

@<SCITEGIC>MOL_PROPERTY
Bond
SciTegic.value.DoubleValue
0.201

@<SCITEGIC>MOL_PROPERTY
Angle
SciTegic.value.DoubleValue
1.484

@<SCITEGIC>MOL_PROPERTY
Pdih
SciTegic.value.DoubleValue
3.662

@<SCITEGIC>MOL_PROPERTY
Idih
SciTegic.value.DoubleValue
0.000

@<SCITEGIC>MOL_PROPERTY
Tether
SciTegic.value.DoubleValue
0.000

@<TRIPOS>MOLECULE
guest-s11_confgen4.mol2 : confsearch ligand conformer 848
          20          19           1
SMALL
USER_CHARGES
 
@<TRIPOS>ATOM
       1    N1      20.650906   20.953208   22.503118 N.4        1 MOL1        -0.5919
       2    H1      20.184396   21.491041   23.240349 H          1 MOL1         0.3682
       3    H2      21.235627   20.248777   22.963124 H          1 MOL1         0.3682
       4    H3      21.278551   21.600040   22.013882 H          1 MOL1         0.3682
       5    C1      19.653518   20.312236   21.557637 C.3        1 MOL1         0.0252
       6    H4      20.202408   19.808648   20.757438 H          1 MOL1         0.0971
       7    H5      19.070453   21.122339   21.111219 H          1 MOL1         0.0971
       8    C2      18.692795   19.317613   22.240388 C.3        1 MOL1        -0.1369
       9    H6      18.353020   19.728350   23.200418 H          1 MOL1         0.0997
      10    H7      17.793820   19.239275   21.614674 H          1 MOL1         0.0997
      11    C3      19.256430   17.885070   22.440390 C.3        1 MOL1        -0.1329
      12    H8      19.469309   17.426810   21.464612 H          1 MOL1         0.0997
      13    H9      18.455339   17.275902   22.881631 H          1 MOL1         0.0997
      14    C4      20.500002   17.780577   23.359699 C.3        1 MOL1        -0.1305
      15    H10     20.492962   18.583875   24.108648 H          1 MOL1         0.0997
      16    H11     20.435000   16.843806   23.931095 H          1 MOL1         0.0997
      17    C5      21.834613   17.764914   22.577145 C.3        1 MOL1        -0.2320
      18    H12     22.687848   17.746291   23.267670 H          1 MOL1         0.1008
      19    H13     21.901336   16.869112   21.945950 H          1 MOL1         0.1008
      20    H14     21.947541   18.635986   21.922871 H          1 MOL1         0.1008
@<TRIPOS>BOND
    1     1     2    1
    2     1     3    1
    3     1     4    1
    4     1     5    1
    5     5     6    1
    6     5     7    1
    7     5     8    1
    8     8     9    1
    9     8    10    1
   10     8    11    1
   11    11    12    1
   12    11    13    1
   13    11    14    1
   14    14    15    1
   15    14    16    1
   16    14    17    1
   17    17    18    1
   18    17    19    1
   19    17    20    1
@<TRIPOS>SUBSTRUCTURE
       1 MOL1            1 RESIDUE      1      MOL     
@<SCITEGIC>MOL_PROPERTY
VConf Rank
SciTegic.value.IntegerValue
848

@<SCITEGIC>MOL_PROPERTY
Conf_Id
SciTegic.value.IntegerValue
67

@<SCITEGIC>MOL_PROPERTY
Delta U+W
SciTegic.value.DoubleValue
5.353

@<SCITEGIC>MOL_PROPERTY
U+W
SciTegic.value.DoubleValue
-6.425

@<SCITEGIC>MOL_PROPERTY
Grad RMS
SciTegic.value.DoubleValue
0.000000

@<SCITEGIC>MOL_PROPERTY
U
SciTegic.value.DoubleValue
51.541

@<SCITEGIC>MOL_PROPERTY
W
SciTegic.value.DoubleValue
-57.966

@<SCITEGIC>MOL_PROPERTY
W(PB)
SciTegic.value.DoubleValue
-59.821

@<SCITEGIC>MOL_PROPERTY
W(SA)
SciTegic.value.DoubleValue
1.855

@<SCITEGIC>MOL_PROPERTY
Valence
SciTegic.value.DoubleValue
5.347

@<SCITEGIC>MOL_PROPERTY
Coulomb
SciTegic.value.DoubleValue
45.870

@<SCITEGIC>MOL_PROPERTY
VdW
SciTegic.value.DoubleValue
0.325

@<SCITEGIC>MOL_PROPERTY
VdW6
SciTegic.value.DoubleValue
-6.161

@<SCITEGIC>MOL_PROPERTY
VdW12
SciTegic.value.DoubleValue
6.486

@<SCITEGIC>MOL_PROPERTY
Bond
SciTegic.value.DoubleValue
0.201

@<SCITEGIC>MOL_PROPERTY
Angle
SciTegic.value.DoubleValue
1.485

@<SCITEGIC>MOL_PROPERTY
Pdih
SciTegic.value.DoubleValue
3.662

@<SCITEGIC>MOL_PROPERTY
Idih
SciTegic.value.DoubleValue
0.000

@<SCITEGIC>MOL_PROPERTY
Tether
SciTegic.value.DoubleValue
0.000

@<TRIPOS>MOLECULE
guest-s11_confgen4.mol2 : confsearch ligand conformer 849
          20          19           1
SMALL
USER_CHARGES
 
@<TRIPOS>ATOM
       1    N1      18.849588   16.273970   23.172576 N.4        1 MOL1        -0.5919
       2    H1      19.676236   15.693536   22.998978 H          1 MOL1         0.3682
       3    H2      18.348077   15.848986   23.959644 H          1 MOL1         0.3682
       4    H3      18.242381   16.186591   22.351570 H          1 MOL1         0.3682
       5    C1      19.218943   17.716637   23.453251 C.3        1 MOL1         0.0252
       6    H4      19.838245   17.737356   24.354114 H          1 MOL1         0.0971
       7    H5      18.296858   18.267428   23.657954 H          1 MOL1         0.0971
       8    C2      19.974028   18.385002   22.290324 C.3        1 MOL1        -0.1369
       9    H6      20.891100   17.819450   22.077724 H          1 MOL1         0.0997
      10    H7      19.355029   18.347703   21.383948 H          1 MOL1         0.0997
      11    C3      20.331318   19.852219   22.616434 C.3        1 MOL1        -0.1329
      12    H8      20.946209   19.886194   23.526679 H          1 MOL1         0.0997
      13    H9      19.411977   20.413844   22.833652 H          1 MOL1         0.0997
      14    C4      21.090037   20.533602   21.455573 C.3        1 MOL1        -0.1305
      15    H10     22.011548   19.976101   21.236352 H          1 MOL1         0.0997
      16    H11     20.477509   20.503771   20.543450 H          1 MOL1         0.0997
      17    C5      21.444965   21.999173   21.785885 C.3        1 MOL1        -0.2320
      18    H12     22.086431   22.059591   22.674753 H          1 MOL1         0.1008
      19    H13     21.982892   22.465614   20.950354 H          1 MOL1         0.1008
      20    H14     20.540420   22.591418   21.976304 H          1 MOL1         0.1008
@<TRIPOS>BOND
    1     1     2    1
    2     1     3    1
    3     1     4    1
    4     1     5    1
    5     5     6    1
    6     5     7    1
    7     5     8    1
    8     8     9    1
    9     8    10    1
   10     8    11    1
   11    11    12    1
   12    11    13    1
   13    11    14    1
   14    14    15    1
   15    14    16    1
   16    14    17    1
   17    17    18    1
   18    17    19    1
   19    17    20    1
@<TRIPOS>SUBSTRUCTURE
       1 MOL1            1 RESIDUE      1      MOL     
@<SCITEGIC>MOL_PROPERTY
VConf Rank
SciTegic.value.IntegerValue
849

@<SCITEGIC>MOL_PROPERTY
Conf_Id
SciTegic.value.IntegerValue
72

@<SCITEGIC>MOL_PROPERTY
Delta U+W
SciTegic.value.DoubleValue
0.000

@<SCITEGIC>MOL_PROPERTY
U+W
SciTegic.value.DoubleValue
-11.778

@<SCITEGIC>MOL_PROPERTY
Grad RMS
SciTegic.value.DoubleValue
0.000000

@<SCITEGIC>MOL_PROPERTY
U
SciTegic.value.DoubleValue
45.772

@<SCITEGIC>MOL_PROPERTY
W
SciTegic.value.DoubleValue
-57.550

@<SCITEGIC>MOL_PROPERTY
W(PB)
SciTegic.value.DoubleValue
-59.511

@<SCITEGIC>MOL_PROPERTY
W(SA)
SciTegic.value.DoubleValue
1.961

@<SCITEGIC>MOL_PROPERTY
Valence
SciTegic.value.DoubleValue
1.299

@<SCITEGIC>MOL_PROPERTY
Coulomb
SciTegic.value.DoubleValue
44.177

@<SCITEGIC>MOL_PROPERTY
VdW
SciTegic.value.DoubleValue
0.297

@<SCITEGIC>MOL_PROPERTY
VdW6
SciTegic.value.DoubleValue
-3.490

@<SCITEGIC>MOL_PROPERTY
VdW12
SciTegic.value.DoubleValue
3.786

@<SCITEGIC>MOL_PROPERTY
Bond
SciTegic.value.DoubleValue
0.096

@<SCITEGIC>MOL_PROPERTY
Angle
SciTegic.value.DoubleValue
0.381

@<SCITEGIC>MOL_PROPERTY
Pdih
SciTegic.value.DoubleValue
0.822

@<SCITEGIC>MOL_PROPERTY
Idih
SciTegic.value.DoubleValue
0.000

@<SCITEGIC>MOL_PROPERTY
Tether
SciTegic.value.DoubleValue
0.000

@<TRIPOS>MOLECULE
guest-s11_confgen4.mol2 : confsearch ligand conformer 850
          20          19           1
SMALL
USER_CHARGES
 
@<TRIPOS>ATOM
       1    N1      21.565496   16.916627   23.809331 N.4        1 MOL1        -0.5919
       2    H1      20.711826   16.613115   24.288354 H          1 MOL1         0.3682
       3    H2      21.674602   16.321599   22.982046 H          1 MOL1         0.3682
       4    H3      22.349390   16.702513   24.434828 H          1 MOL1         0.3682
       5    C1      21.519737   18.387462   23.447219 C.3        1 MOL1         0.0252
       6    H4      22.468768   18.647162   22.970366 H          1 MOL1         0.0971
       7    H5      21.433226   18.960830   24.374187 H          1 MOL1         0.0971
       8    C2      20.353656   18.743481   22.507658 C.3        1 MOL1        -0.1369
       9    H6      20.435597   18.153871   21.584914 H          1 MOL1         0.0997
      10    H7      19.408240   18.462487   22.988594 H          1 MOL1         0.0997
      11    C3      20.347269   20.251608   22.163214 C.3        1 MOL1        -0.1329
      12    H8      21.328591   20.529169   21.753690 H          1 MOL1         0.0997
      13    H9      20.218767   20.840599   23.081998 H          1 MOL1         0.0997
      14    C4      19.256370   20.646740   21.138285 C.3        1 MOL1        -0.1305
      15    H10     19.388997   21.704884   20.872427 H          1 MOL1         0.0997
      16    H11     19.395612   20.077155   20.208737 H          1 MOL1         0.0997
      17    C5      17.816775   20.441779   21.662773 C.3        1 MOL1        -0.2320
      18    H12     17.660063   20.978783   22.607274 H          1 MOL1         0.1008
      19    H13     17.085904   20.820638   20.936656 H          1 MOL1         0.1008
      20    H14     17.595144   19.380392   21.829385 H          1 MOL1         0.1008
@<TRIPOS>BOND
    1     1     2    1
    2     1     3    1
    3     1     4    1
    4     1     5    1
    5     5     6    1
    6     5     7    1
    7     5     8    1
    8     8     9    1
    9     8    10    1
   10     8    11    1
   11    11    12    1
   12    11    13    1
   13    11    14    1
   14    14    15    1
   15    14    16    1
   16    14    17    1
   17    17    18    1
   18    17    19    1
   19    17    20    1
@<TRIPOS>SUBSTRUCTURE
       1 MOL1            1 RESIDUE      1      MOL     
@<SCITEGIC>MOL_PROPERTY
VConf Rank
SciTegic.value.IntegerValue
850

@<SCITEGIC>MOL_PROPERTY
Conf_Id
SciTegic.value.IntegerValue
42

@<SCITEGIC>MOL_PROPERTY
Delta U+W
SciTegic.value.DoubleValue
0.508

@<SCITEGIC>MOL_PROPERTY
U+W
SciTegic.value.DoubleValue
-11.270

@<SCITEGIC>MOL_PROPERTY
Grad RMS
SciTegic.value.DoubleValue
0.000000

@<SCITEGIC>MOL_PROPERTY
U
SciTegic.value.DoubleValue
46.486

@<SCITEGIC>MOL_PROPERTY
W
SciTegic.value.DoubleValue
-57.756

@<SCITEGIC>MOL_PROPERTY
W(PB)
SciTegic.value.DoubleValue
-59.705

@<SCITEGIC>MOL_PROPERTY
W(SA)
SciTegic.value.DoubleValue
1.949

@<SCITEGIC>MOL_PROPERTY
Valence
SciTegic.value.DoubleValue
1.806

@<SCITEGIC>MOL_PROPERTY
Coulomb
SciTegic.value.DoubleValue
44.248

@<SCITEGIC>MOL_PROPERTY
VdW
SciTegic.value.DoubleValue
0.433

@<SCITEGIC>MOL_PROPERTY
VdW6
SciTegic.value.DoubleValue
-4.089

@<SCITEGIC>MOL_PROPERTY
VdW12
SciTegic.value.DoubleValue
4.522

@<SCITEGIC>MOL_PROPERTY
Bond
SciTegic.value.DoubleValue
0.131

@<SCITEGIC>MOL_PROPERTY
Angle
SciTegic.value.DoubleValue
0.628

@<SCITEGIC>MOL_PROPERTY
Pdih
SciTegic.value.DoubleValue
1.047

@<SCITEGIC>MOL_PROPERTY
Idih
SciTegic.value.DoubleValue
0.000

@<SCITEGIC>MOL_PROPERTY
Tether
SciTegic.value.DoubleValue
0.000

@<TRIPOS>MOLECULE
guest-s11_confgen4.mol2 : confsearch ligand conformer 851
          20          19           1
SMALL
USER_CHARGES
 
@<TRIPOS>ATOM
       1    N1      20.464924   21.749696   21.186359 N.4        1 MOL1        -0.5919
       2    H1      21.367048   21.579101   20.730911 H          1 MOL1         0.3682
       3    H2      19.735128   21.529984   20.501188 H          1 MOL1         0.3682
       4    H3      20.409177   22.757575   21.367062 H          1 MOL1         0.3682
       5    C1      20.310369   20.940325   22.458213 C.3        1 MOL1         0.0252
       6    H4      19.344531   21.193173   22.904007 H          1 MOL1         0.0971
       7    H5      21.098838   21.246746   23.150973 H          1 MOL1         0.0971
       8    C2      20.389819   19.421329   22.222402 C.3        1 MOL1        -0.1369
       9    H6      19.606048   19.128099   21.512623 H          1 MOL1         0.0997
      10    H7      21.354661   19.173892   21.760160 H          1 MOL1         0.0997
      11    C3      20.229643   18.636088   23.545608 C.3        1 MOL1        -0.1329
      12    H8      19.244950   18.848063   23.984962 H          1 MOL1         0.0997
      13    H9      20.974196   18.997680   24.268543 H          1 MOL1         0.0997
      14    C4      20.404847   17.106683   23.381619 C.3        1 MOL1        -0.1305
      15    H10     21.398044   16.888714   22.964574 H          1 MOL1         0.0997
      16    H11     20.380846   16.640313   24.376537 H          1 MOL1         0.0997
      17    C5      19.316051   16.454144   22.499435 C.3        1 MOL1        -0.2320
      18    H12     19.377437   16.800313   21.460290 H          1 MOL1         0.1008
      19    H13     19.432413   15.362665   22.490214 H          1 MOL1         0.1008
      20    H14     18.311373   16.680830   22.879238 H          1 MOL1         0.1008
@<TRIPOS>BOND
    1     1     2    1
    2     1     3    1
    3     1     4    1
    4     1     5    1
    5     5     6    1
    6     5     7    1
    7     5     8    1
    8     8     9    1
    9     8    10    1
   10     8    11    1
   11    11    12    1
   12    11    13    1
   13    11    14    1
   14    14    15    1
   15    14    16    1
   16    14    17    1
   17    17    18    1
   18    17    19    1
   19    17    20    1
@<TRIPOS>SUBSTRUCTURE
       1 MOL1            1 RESIDUE      1      MOL     
@<SCITEGIC>MOL_PROPERTY
VConf Rank
SciTegic.value.IntegerValue
851

@<SCITEGIC>MOL_PROPERTY
Conf_Id
SciTegic.value.IntegerValue
41

@<SCITEGIC>MOL_PROPERTY
Delta U+W
SciTegic.value.DoubleValue
0.515

@<SCITEGIC>MOL_PROPERTY
U+W
SciTegic.value.DoubleValue
-11.263

@<SCITEGIC>MOL_PROPERTY
Grad RMS
SciTegic.value.DoubleValue
0.000000

@<SCITEGIC>MOL_PROPERTY
U
SciTegic.value.DoubleValue
46.486

@<SCITEGIC>MOL_PROPERTY
W
SciTegic.value.DoubleValue
-57.749

@<SCITEGIC>MOL_PROPERTY
W(PB)
SciTegic.value.DoubleValue
-59.685

@<SCITEGIC>MOL_PROPERTY
W(SA)
SciTegic.value.DoubleValue
1.936

@<SCITEGIC>MOL_PROPERTY
Valence
SciTegic.value.DoubleValue
1.806

@<SCITEGIC>MOL_PROPERTY
Coulomb
SciTegic.value.DoubleValue
44.248

@<SCITEGIC>MOL_PROPERTY
VdW
SciTegic.value.DoubleValue
0.433

@<SCITEGIC>MOL_PROPERTY
VdW6
SciTegic.value.DoubleValue
-4.089

@<SCITEGIC>MOL_PROPERTY
VdW12
SciTegic.value.DoubleValue
4.522

@<SCITEGIC>MOL_PROPERTY
Bond
SciTegic.value.DoubleValue
0.131

@<SCITEGIC>MOL_PROPERTY
Angle
SciTegic.value.DoubleValue
0.628

@<SCITEGIC>MOL_PROPERTY
Pdih
SciTegic.value.DoubleValue
1.047

@<SCITEGIC>MOL_PROPERTY
Idih
SciTegic.value.DoubleValue
0.000

@<SCITEGIC>MOL_PROPERTY
Tether
SciTegic.value.DoubleValue
0.000

@<TRIPOS>MOLECULE
guest-s11_confgen4.mol2 : confsearch ligand conformer 852
          20          19           1
SMALL
USER_CHARGES
 
@<TRIPOS>ATOM
       1    N1      21.790079   17.121818   21.498899 N.4        1 MOL1        -0.5919
       2    H1      22.676692   16.606670   21.492482 H          1 MOL1         0.3682
       3    H2      21.152848   16.610645   22.116620 H          1 MOL1         0.3682
       4    H3      21.404971   17.063365   20.551023 H          1 MOL1         0.3682
       5    C1      21.977769   18.559232   21.944743 C.3        1 MOL1         0.0252
       6    H4      22.699768   19.023609   21.267490 H          1 MOL1         0.0971
       7    H5      22.410912   18.550109   22.948608 H          1 MOL1         0.0971
       8    C2      20.677574   19.387091   21.948358 C.3        1 MOL1        -0.1369
       9    H6      20.940620   20.429220   22.168317 H          1 MOL1         0.0997
      10    H7      20.235823   19.379900   20.943126 H          1 MOL1         0.0997
      11    C3      19.646143   18.877058   22.986209 C.3        1 MOL1        -0.1329
      12    H8      20.087263   18.908585   23.992136 H          1 MOL1         0.0997
      13    H9      19.414214   17.823145   22.783520 H          1 MOL1         0.0997
      14    C4      18.318672   19.673769   22.978923 C.3        1 MOL1        -0.1305
      15    H10     17.866419   19.633823   21.978055 H          1 MOL1         0.0997
      16    H11     17.607997   19.179872   23.656379 H          1 MOL1         0.0997
      17    C5      18.481100   21.147066   23.417984 C.3        1 MOL1        -0.2320
      18    H12     19.084063   21.718279   22.701451 H          1 MOL1         0.1008
      19    H13     17.501314   21.637120   23.487375 H          1 MOL1         0.1008
      20    H14     18.960291   21.215373   24.403232 H          1 MOL1         0.1008
@<TRIPOS>BOND
    1     1     2    1
    2     1     3    1
    3     1     4    1
    4     1     5    1
    5     5     6    1
    6     5     7    1
    7     5     8    1
    8     8     9    1
    9     8    10    1
   10     8    11    1
   11    11    12    1
   12    11    13    1
   13    11    14    1
   14    14    15    1
   15    14    16    1
   16    14    17    1
   17    17    18    1
   18    17    19    1
   19    17    20    1
@<TRIPOS>SUBSTRUCTURE
       1 MOL1            1 RESIDUE      1      MOL     
@<SCITEGIC>MOL_PROPERTY
VConf Rank
SciTegic.value.IntegerValue
852

@<SCITEGIC>MOL_PROPERTY
Conf_Id
SciTegic.value.IntegerValue
33

@<SCITEGIC>MOL_PROPERTY
Delta U+W
SciTegic.value.DoubleValue
0.703

@<SCITEGIC>MOL_PROPERTY
U+W
SciTegic.value.DoubleValue
-11.075

@<SCITEGIC>MOL_PROPERTY
Grad RMS
SciTegic.value.DoubleValue
0.000000

@<SCITEGIC>MOL_PROPERTY
U
SciTegic.value.DoubleValue
47.080

@<SCITEGIC>MOL_PROPERTY
W
SciTegic.value.DoubleValue
-58.154

@<SCITEGIC>MOL_PROPERTY
W(PB)
SciTegic.value.DoubleValue
-60.053

@<SCITEGIC>MOL_PROPERTY
W(SA)
SciTegic.value.DoubleValue
1.899

@<SCITEGIC>MOL_PROPERTY
Valence
SciTegic.value.DoubleValue
1.943

@<SCITEGIC>MOL_PROPERTY
Coulomb
SciTegic.value.DoubleValue
44.572

@<SCITEGIC>MOL_PROPERTY
VdW
SciTegic.value.DoubleValue
0.565

@<SCITEGIC>MOL_PROPERTY
VdW6
SciTegic.value.DoubleValue
-4.575

@<SCITEGIC>MOL_PROPERTY
VdW12
SciTegic.value.DoubleValue
5.139

@<SCITEGIC>MOL_PROPERTY
Bond
SciTegic.value.DoubleValue
0.158

@<SCITEGIC>MOL_PROPERTY
Angle
SciTegic.value.DoubleValue
0.700

@<SCITEGIC>MOL_PROPERTY
Pdih
SciTegic.value.DoubleValue
1.085

@<SCITEGIC>MOL_PROPERTY
Idih
SciTegic.value.DoubleValue
0.000

@<SCITEGIC>MOL_PROPERTY
Tether
SciTegic.value.DoubleValue
0.000

@<TRIPOS>MOLECULE
guest-s11_confgen4.mol2 : confsearch ligand conformer 853
          20          19           1
SMALL
USER_CHARGES
 
@<TRIPOS>ATOM
       1    N1      18.821611   16.840212   23.283308 N.4        1 MOL1        -0.5919
       2    H1      17.994214   16.234777   23.302352 H          1 MOL1         0.3682
       3    H2      19.638529   16.231460   23.394029 H          1 MOL1         0.3682
       4    H3      18.773657   17.436672   24.114496 H          1 MOL1         0.3682
       5    C1      18.893256   17.655044   22.006172 C.3        1 MOL1         0.0252
       6    H4      17.985978   18.261416   21.938325 H          1 MOL1         0.0971
       7    H5      18.896949   16.954198   21.166886 H          1 MOL1         0.0971
       8    C2      20.133636   18.565513   21.914710 C.3        1 MOL1        -0.1369
       9    H6      21.042818   17.955842   22.000622 H          1 MOL1         0.0997
      10    H7      20.150353   19.015002   20.914066 H          1 MOL1         0.0997
      11    C3      20.137808   19.681131   22.990115 C.3        1 MOL1        -0.1329
      12    H8      20.084194   19.226828   23.988285 H          1 MOL1         0.0997
      13    H9      19.236547   20.300696   22.883645 H          1 MOL1         0.0997
      14    C4      21.394557   20.583768   22.937153 C.3        1 MOL1        -0.1305
      15    H10     21.372675   21.268412   23.796645 H          1 MOL1         0.0997
      16    H11     22.298474   19.970207   23.056915 H          1 MOL1         0.0997
      17    C5      21.500345   21.418339   21.640208 C.3        1 MOL1        -0.2320
      18    H12     20.594543   22.017602   21.480796 H          1 MOL1         0.1008
      19    H13     22.352622   22.107877   21.695966 H          1 MOL1         0.1008
      20    H14     21.650688   20.780740   20.760359 H          1 MOL1         0.1008
@<TRIPOS>BOND
    1     1     2    1
    2     1     3    1
    3     1     4    1
    4     1     5    1
    5     5     6    1
    6     5     7    1
    7     5     8    1
    8     8     9    1
    9     8    10    1
   10     8    11    1
   11    11    12    1
   12    11    13    1
   13    11    14    1
   14    14    15    1
   15    14    16    1
   16    14    17    1
   17    17    18    1
   18    17    19    1
   19    17    20    1
@<TRIPOS>SUBSTRUCTURE
       1 MOL1            1 RESIDUE      1      MOL     
@<SCITEGIC>MOL_PROPERTY
VConf Rank
SciTegic.value.IntegerValue
853

@<SCITEGIC>MOL_PROPERTY
Conf_Id
SciTegic.value.IntegerValue
24

@<SCITEGIC>MOL_PROPERTY
Delta U+W
SciTegic.value.DoubleValue
0.847

@<SCITEGIC>MOL_PROPERTY
U+W
SciTegic.value.DoubleValue
-10.931

@<SCITEGIC>MOL_PROPERTY
Grad RMS
SciTegic.value.DoubleValue
0.000000

@<SCITEGIC>MOL_PROPERTY
U
SciTegic.value.DoubleValue
47.080

@<SCITEGIC>MOL_PROPERTY
W
SciTegic.value.DoubleValue
-58.011

@<SCITEGIC>MOL_PROPERTY
W(PB)
SciTegic.value.DoubleValue
-59.914

@<SCITEGIC>MOL_PROPERTY
W(SA)
SciTegic.value.DoubleValue
1.903

@<SCITEGIC>MOL_PROPERTY
Valence
SciTegic.value.DoubleValue
1.943

@<SCITEGIC>MOL_PROPERTY
Coulomb
SciTegic.value.DoubleValue
44.572

@<SCITEGIC>MOL_PROPERTY
VdW
SciTegic.value.DoubleValue
0.565

@<SCITEGIC>MOL_PROPERTY
VdW6
SciTegic.value.DoubleValue
-4.575

@<SCITEGIC>MOL_PROPERTY
VdW12
SciTegic.value.DoubleValue
5.140

@<SCITEGIC>MOL_PROPERTY
Bond
SciTegic.value.DoubleValue
0.158

@<SCITEGIC>MOL_PROPERTY
Angle
SciTegic.value.DoubleValue
0.700

@<SCITEGIC>MOL_PROPERTY
Pdih
SciTegic.value.DoubleValue
1.085

@<SCITEGIC>MOL_PROPERTY
Idih
SciTegic.value.DoubleValue
0.000

@<SCITEGIC>MOL_PROPERTY
Tether
SciTegic.value.DoubleValue
0.000

@<TRIPOS>MOLECULE
guest-s11_confgen4.mol2 : confsearch ligand conformer 854
          20          19           1
SMALL
USER_CHARGES
 
@<TRIPOS>ATOM
       1    N1      20.461844   20.358138   20.018855 N.4        1 MOL1        -0.5919
       2    H1      20.286298   21.335353   19.762490 H          1 MOL1         0.3682
       3    H2      21.478765   20.242497   20.071008 H          1 MOL1         0.3682
       4    H3      20.132886   19.782483   19.237371 H          1 MOL1         0.3682
       5    C1      19.781843   19.986666   21.321136 C.3        1 MOL1         0.0252
       6    H4      18.708881   20.161057   21.204003 H          1 MOL1         0.0971
       7    H5      20.156486   20.657380   22.098806 H          1 MOL1         0.0971
       8    C2      20.026444   18.523499   21.735790 C.3        1 MOL1        -0.1369
       9    H6      19.684680   17.860160   20.930223 H          1 MOL1         0.0997
      10    H7      21.103796   18.344926   21.844774 H          1 MOL1         0.0997
      11    C3      19.290763   18.140229   23.044176 C.3        1 MOL1        -0.1329
      12    H8      19.497975   17.085865   23.273615 H          1 MOL1         0.0997
      13    H9      18.206814   18.205178   22.875861 H          1 MOL1         0.0997
      14    C4      19.657144   19.008308   24.275203 C.3        1 MOL1        -0.1305
      15    H10     19.359395   20.052074   24.105865 H          1 MOL1         0.0997
      16    H11     19.066893   18.662804   25.135500 H          1 MOL1         0.0997
      17    C5      21.156831   18.948995   24.644566 C.3        1 MOL1        -0.2320
      18    H12     21.346236   19.502730   25.573226 H          1 MOL1         0.1008
      19    H13     21.484837   17.912873   24.798966 H          1 MOL1         0.1008
      20    H14     21.782470   19.395075   23.861480 H          1 MOL1         0.1008
@<TRIPOS>BOND
    1     1     2    1
    2     1     3    1
    3     1     4    1
    4     1     5    1
    5     5     6    1
    6     5     7    1
    7     5     8    1
    8     8     9    1
    9     8    10    1
   10     8    11    1
   11    11    12    1
   12    11    13    1
   13    11    14    1
   14    14    15    1
   15    14    16    1
   16    14    17    1
   17    17    18    1
   18    17    19    1
   19    17    20    1
@<TRIPOS>SUBSTRUCTURE
       1 MOL1            1 RESIDUE      1      MOL     
@<SCITEGIC>MOL_PROPERTY
VConf Rank
SciTegic.value.IntegerValue
854

@<SCITEGIC>MOL_PROPERTY
Conf_Id
SciTegic.value.IntegerValue
64

@<SCITEGIC>MOL_PROPERTY
Delta U+W
SciTegic.value.DoubleValue
0.707

@<SCITEGIC>MOL_PROPERTY
U+W
SciTegic.value.DoubleValue
-11.070

@<SCITEGIC>MOL_PROPERTY
Grad RMS
SciTegic.value.DoubleValue
0.000000

@<SCITEGIC>MOL_PROPERTY
U
SciTegic.value.DoubleValue
47.077

@<SCITEGIC>MOL_PROPERTY
W
SciTegic.value.DoubleValue
-58.148

@<SCITEGIC>MOL_PROPERTY
W(PB)
SciTegic.value.DoubleValue
-60.054

@<SCITEGIC>MOL_PROPERTY
W(SA)
SciTegic.value.DoubleValue
1.906

@<SCITEGIC>MOL_PROPERTY
Valence
SciTegic.value.DoubleValue
2.039

@<SCITEGIC>MOL_PROPERTY
Coulomb
SciTegic.value.DoubleValue
44.655

@<SCITEGIC>MOL_PROPERTY
VdW
SciTegic.value.DoubleValue
0.383

@<SCITEGIC>MOL_PROPERTY
VdW6
SciTegic.value.DoubleValue
-4.912

@<SCITEGIC>MOL_PROPERTY
VdW12
SciTegic.value.DoubleValue
5.295

@<SCITEGIC>MOL_PROPERTY
Bond
SciTegic.value.DoubleValue
0.159

@<SCITEGIC>MOL_PROPERTY
Angle
SciTegic.value.DoubleValue
0.856

@<SCITEGIC>MOL_PROPERTY
Pdih
SciTegic.value.DoubleValue
1.024

@<SCITEGIC>MOL_PROPERTY
Idih
SciTegic.value.DoubleValue
0.000

@<SCITEGIC>MOL_PROPERTY
Tether
SciTegic.value.DoubleValue
0.000

@<TRIPOS>MOLECULE
guest-s11_confgen4.mol2 : confsearch ligand conformer 855
          20          19           1
SMALL
USER_CHARGES
 
@<TRIPOS>ATOM
       1    N1      20.710441   16.633576   23.664697 N.4        1 MOL1        -0.5919
       2    H1      20.521496   15.825315   23.063595 H          1 MOL1         0.3682
       3    H2      21.720957   16.801477   23.634864 H          1 MOL1         0.3682
       4    H3      20.484171   16.349886   24.623764 H          1 MOL1         0.3682
       5    C1      19.920458   17.854013   23.237163 C.3        1 MOL1         0.0252
       6    H4      20.147216   18.662800   23.936755 H          1 MOL1         0.0971
       7    H5      18.856928   17.614710   23.320933 H          1 MOL1         0.0971
       8    C2      20.237626   18.307194   21.799577 C.3        1 MOL1        -0.1369
       9    H6      21.306788   18.538886   21.712014 H          1 MOL1         0.0997
      10    H7      20.045942   17.474339   21.110106 H          1 MOL1         0.0997
      11    C3      19.392878   19.527545   21.355572 C.3        1 MOL1        -0.1329
      12    H8      18.333398   19.237193   21.329295 H          1 MOL1         0.0997
      13    H9      19.660016   19.788721   20.322282 H          1 MOL1         0.0997
      14    C4      19.543536   20.783976   22.251064 C.3        1 MOL1        -0.1305
      15    H10     18.890494   21.575242   21.856960 H          1 MOL1         0.0997
      16    H11     19.180760   20.572394   23.266152 H          1 MOL1         0.0997
      17    C5      20.991357   21.320960   22.317924 C.3        1 MOL1        -0.2320
      18    H12     21.385130   21.521095   21.313004 H          1 MOL1         0.1008
      19    H13     21.027341   22.259862   22.885438 H          1 MOL1         0.1008
      20    H14     21.662284   20.609448   22.815160 H          1 MOL1         0.1008
@<TRIPOS>BOND
    1     1     2    1
    2     1     3    1
    3     1     4    1
    4     1     5    1
    5     5     6    1
    6     5     7    1
    7     5     8    1
    8     8     9    1
    9     8    10    1
   10     8    11    1
   11    11    12    1
   12    11    13    1
   13    11    14    1
   14    14    15    1
   15    14    16    1
   16    14    17    1
   17    17    18    1
   18    17    19    1
   19    17    20    1
@<TRIPOS>SUBSTRUCTURE
       1 MOL1            1 RESIDUE      1      MOL     
@<SCITEGIC>MOL_PROPERTY
VConf Rank
SciTegic.value.IntegerValue
855

@<SCITEGIC>MOL_PROPERTY
Conf_Id
SciTegic.value.IntegerValue
22

@<SCITEGIC>MOL_PROPERTY
Delta U+W
SciTegic.value.DoubleValue
0.731

@<SCITEGIC>MOL_PROPERTY
U+W
SciTegic.value.DoubleValue
-11.047

@<SCITEGIC>MOL_PROPERTY
Grad RMS
SciTegic.value.DoubleValue
0.000000

@<SCITEGIC>MOL_PROPERTY
U
SciTegic.value.DoubleValue
47.078

@<SCITEGIC>MOL_PROPERTY
W
SciTegic.value.DoubleValue
-58.125

@<SCITEGIC>MOL_PROPERTY
W(PB)
SciTegic.value.DoubleValue
-60.031

@<SCITEGIC>MOL_PROPERTY
W(SA)
SciTegic.value.DoubleValue
1.906

@<SCITEGIC>MOL_PROPERTY
Valence
SciTegic.value.DoubleValue
2.039

@<SCITEGIC>MOL_PROPERTY
Coulomb
SciTegic.value.DoubleValue
44.655

@<SCITEGIC>MOL_PROPERTY
VdW
SciTegic.value.DoubleValue
0.383

@<SCITEGIC>MOL_PROPERTY
VdW6
SciTegic.value.DoubleValue
-4.913

@<SCITEGIC>MOL_PROPERTY
VdW12
SciTegic.value.DoubleValue
5.296

@<SCITEGIC>MOL_PROPERTY
Bond
SciTegic.value.DoubleValue
0.159

@<SCITEGIC>MOL_PROPERTY
Angle
SciTegic.value.DoubleValue
0.856

@<SCITEGIC>MOL_PROPERTY
Pdih
SciTegic.value.DoubleValue
1.024

@<SCITEGIC>MOL_PROPERTY
Idih
SciTegic.value.DoubleValue
0.000

@<SCITEGIC>MOL_PROPERTY
Tether
SciTegic.value.DoubleValue
0.000

@<TRIPOS>MOLECULE
guest-s11_confgen4.mol2 : confsearch ligand conformer 856
          20          19           1
SMALL
USER_CHARGES
 
@<TRIPOS>ATOM
       1    N1      18.794573   16.994429   23.380086 N.4        1 MOL1        -0.5919
       2    H1      17.928732   17.411885   23.735592 H          1 MOL1         0.3682
       3    H2      18.532330   16.357914   22.620884 H          1 MOL1         0.3682
       4    H3      19.177080   16.415004   24.134705 H          1 MOL1         0.3682
       5    C1      19.783781   18.046656   22.920852 C.3        1 MOL1         0.0252
       6    H4      20.688877   17.535298   22.582163 H          1 MOL1         0.0971
       7    H5      20.036251   18.664271   23.785767 H          1 MOL1         0.0971
       8    C2      19.237126   18.937646   21.791261 C.3        1 MOL1        -0.1369
       9    H6      18.876707   18.294486   20.977402 H          1 MOL1         0.0997
      10    H7      18.364006   19.495138   22.155474 H          1 MOL1         0.0997
      11    C3      20.279951   19.925942   21.210143 C.3        1 MOL1        -0.1329
      12    H8      19.809993   20.438575   20.359321 H          1 MOL1         0.0997
      13    H9      21.131992   19.373919   20.789848 H          1 MOL1         0.0997
      14    C4      20.779893   21.006798   22.203621 C.3        1 MOL1        -0.1305
      15    H10     21.068914   21.897153   21.627568 H          1 MOL1         0.0997
      16    H11     19.960844   21.327046   22.862666 H          1 MOL1         0.0997
      17    C5      22.003675   20.569277   23.042531 C.3        1 MOL1        -0.2320
      18    H12     21.770348   19.738426   23.716414 H          1 MOL1         0.1008
      19    H13     22.834549   20.260008   22.395225 H          1 MOL1         0.1008
      20    H14     22.358985   21.402740   23.662271 H          1 MOL1         0.1008
@<TRIPOS>BOND
    1     1     2    1
    2     1     3    1
    3     1     4    1
    4     1     5    1
    5     5     6    1
    6     5     7    1
    7     5     8    1
    8     8     9    1
    9     8    10    1
   10     8    11    1
   11    11    12    1
   12    11    13    1
   13    11    14    1
   14    14    15    1
   15    14    16    1
   16    14    17    1
   17    17    18    1
   18    17    19    1
   19    17    20    1
@<TRIPOS>SUBSTRUCTURE
       1 MOL1            1 RESIDUE      1      MOL     
@<SCITEGIC>MOL_PROPERTY
VConf Rank
SciTegic.value.IntegerValue
856

@<SCITEGIC>MOL_PROPERTY
Conf_Id
SciTegic.value.IntegerValue
61

@<SCITEGIC>MOL_PROPERTY
Delta U+W
SciTegic.value.DoubleValue
2.669

@<SCITEGIC>MOL_PROPERTY
U+W
SciTegic.value.DoubleValue
-9.108

@<SCITEGIC>MOL_PROPERTY
Grad RMS
SciTegic.value.DoubleValue
0.000000

@<SCITEGIC>MOL_PROPERTY
U
SciTegic.value.DoubleValue
48.916

@<SCITEGIC>MOL_PROPERTY
W
SciTegic.value.DoubleValue
-58.025

@<SCITEGIC>MOL_PROPERTY
W(PB)
SciTegic.value.DoubleValue
-59.935

@<SCITEGIC>MOL_PROPERTY
W(SA)
SciTegic.value.DoubleValue
1.911

@<SCITEGIC>MOL_PROPERTY
Valence
SciTegic.value.DoubleValue
3.785

@<SCITEGIC>MOL_PROPERTY
Coulomb
SciTegic.value.DoubleValue
44.716

@<SCITEGIC>MOL_PROPERTY
VdW
SciTegic.value.DoubleValue
0.415

@<SCITEGIC>MOL_PROPERTY
VdW6
SciTegic.value.DoubleValue
-4.836

@<SCITEGIC>MOL_PROPERTY
VdW12
SciTegic.value.DoubleValue
5.251

@<SCITEGIC>MOL_PROPERTY
Bond
SciTegic.value.DoubleValue
0.175

@<SCITEGIC>MOL_PROPERTY
Angle
SciTegic.value.DoubleValue
1.195

@<SCITEGIC>MOL_PROPERTY
Pdih
SciTegic.value.DoubleValue
2.415

@<SCITEGIC>MOL_PROPERTY
Idih
SciTegic.value.DoubleValue
0.000

@<SCITEGIC>MOL_PROPERTY
Tether
SciTegic.value.DoubleValue
0.000

@<TRIPOS>MOLECULE
guest-s11_confgen4.mol2 : confsearch ligand conformer 857
          20          19           1
SMALL
USER_CHARGES
 
@<TRIPOS>ATOM
       1    N1      18.538304   18.748497   20.804628 N.4        1 MOL1        -0.5919
       2    H1      18.371827   18.670915   19.795714 H          1 MOL1         0.3682
       3    H2      17.618784   18.756466   21.257090 H          1 MOL1         0.3682
       4    H3      18.963992   19.664277   20.969434 H          1 MOL1         0.3682
       5    C1      19.408548   17.617676   21.318915 C.3        1 MOL1         0.0252
       6    H4      20.350051   17.621706   20.763132 H          1 MOL1         0.0971
       7    H5      18.885580   16.684960   21.090648 H          1 MOL1         0.0971
       8    C2      19.694454   17.673398   22.834378 C.3        1 MOL1        -0.1369
       9    H6      18.780027   17.940606   23.380490 H          1 MOL1         0.0997
      10    H7      19.954570   16.658167   23.162273 H          1 MOL1         0.0997
      11    C3      20.858865   18.614719   23.236660 C.3        1 MOL1        -0.1329
      12    H8      21.778930   18.297665   22.726343 H          1 MOL1         0.0997
      13    H9      21.046355   18.486014   24.311724 H          1 MOL1         0.0997
      14    C4      20.600651   20.112705   22.950874 C.3        1 MOL1        -0.1305
      15    H10     20.560327   20.287579   21.868449 H          1 MOL1         0.0997
      16    H11     19.628217   20.410576   23.367511 H          1 MOL1         0.0997
      17    C5      21.707743   21.005050   23.551779 C.3        1 MOL1        -0.2320
      18    H12     21.514971   22.063167   23.332057 H          1 MOL1         0.1008
      19    H13     21.758287   20.892381   24.642638 H          1 MOL1         0.1008
      20    H14     22.690815   20.748507   23.135817 H          1 MOL1         0.1008
@<TRIPOS>BOND
    1     1     2    1
    2     1     3    1
    3     1     4    1
    4     1     5    1
    5     5     6    1
    6     5     7    1
    7     5     8    1
    8     8     9    1
    9     8    10    1
   10     8    11    1
   11    11    12    1
   12    11    13    1
   13    11    14    1
   14    14    15    1
   15    14    16    1
   16    14    17    1
   17    17    18    1
   18    17    19    1
   19    17    20    1
@<TRIPOS>SUBSTRUCTURE
       1 MOL1            1 RESIDUE      1      MOL     
@<SCITEGIC>MOL_PROPERTY
VConf Rank
SciTegic.value.IntegerValue
857

@<SCITEGIC>MOL_PROPERTY
Conf_Id
SciTegic.value.IntegerValue
69

@<SCITEGIC>MOL_PROPERTY
Delta U+W
SciTegic.value.DoubleValue
2.811

@<SCITEGIC>MOL_PROPERTY
U+W
SciTegic.value.DoubleValue
-8.967

@<SCITEGIC>MOL_PROPERTY
Grad RMS
SciTegic.value.DoubleValue
0.000000

@<SCITEGIC>MOL_PROPERTY
U
SciTegic.value.DoubleValue
49.216

@<SCITEGIC>MOL_PROPERTY
W
SciTegic.value.DoubleValue
-58.183

@<SCITEGIC>MOL_PROPERTY
W(PB)
SciTegic.value.DoubleValue
-60.064

@<SCITEGIC>MOL_PROPERTY
W(SA)
SciTegic.value.DoubleValue
1.881

@<SCITEGIC>MOL_PROPERTY
Valence
SciTegic.value.DoubleValue
2.929

@<SCITEGIC>MOL_PROPERTY
Coulomb
SciTegic.value.DoubleValue
46.006

@<SCITEGIC>MOL_PROPERTY
VdW
SciTegic.value.DoubleValue
0.281

@<SCITEGIC>MOL_PROPERTY
VdW6
SciTegic.value.DoubleValue
-4.909

@<SCITEGIC>MOL_PROPERTY
VdW12
SciTegic.value.DoubleValue
5.190

@<SCITEGIC>MOL_PROPERTY
Bond
SciTegic.value.DoubleValue
0.156

@<SCITEGIC>MOL_PROPERTY
Angle
SciTegic.value.DoubleValue
0.974

@<SCITEGIC>MOL_PROPERTY
Pdih
SciTegic.value.DoubleValue
1.799

@<SCITEGIC>MOL_PROPERTY
Idih
SciTegic.value.DoubleValue
0.000

@<SCITEGIC>MOL_PROPERTY
Tether
SciTegic.value.DoubleValue
0.000

@<TRIPOS>MOLECULE
guest-s11_confgen4.mol2 : confsearch ligand conformer 858
          20          19           1
SMALL
USER_CHARGES
 
@<TRIPOS>ATOM
       1    N1      18.374295   18.518695   21.033281 N.4        1 MOL1        -0.5919
       2    H1      18.210918   18.697733   22.027405 H          1 MOL1         0.3682
       3    H2      18.049158   19.343901   20.519836 H          1 MOL1         0.3682
       4    H3      17.762890   17.741083   20.762827 H          1 MOL1         0.3682
       5    C1      19.831714   18.214197   20.743834 C.3        1 MOL1         0.0252
       6    H4      19.909781   18.025213   19.669708 H          1 MOL1         0.0971
       7    H5      20.107111   17.295792   21.269219 H          1 MOL1         0.0971
       8    C2      20.806561   19.348222   21.124804 C.3        1 MOL1        -0.1369
       9    H6      21.719626   19.217377   20.528932 H          1 MOL1         0.0997
      10    H7      20.389564   20.319281   20.826522 H          1 MOL1         0.0997
      11    C3      21.215371   19.371870   22.620159 C.3        1 MOL1        -0.1329
      12    H8      21.992316   20.138043   22.749825 H          1 MOL1         0.0997
      13    H9      21.683639   18.414236   22.886855 H          1 MOL1         0.0997
      14    C4      20.054155   19.668108   23.597979 C.3        1 MOL1        -0.1305
      15    H10     19.513104   20.568277   23.274092 H          1 MOL1         0.0997
      16    H11     19.338060   18.836815   23.594335 H          1 MOL1         0.0997
      17    C5      20.563902   19.871089   25.040884 C.3        1 MOL1        -0.2320
      18    H12     21.255854   20.721326   25.100222 H          1 MOL1         0.1008
      19    H13     19.727488   20.070582   25.723281 H          1 MOL1         0.1008
      20    H14     21.088565   18.977544   25.403619 H          1 MOL1         0.1008
@<TRIPOS>BOND
    1     1     2    1
    2     1     3    1
    3     1     4    1
    4     1     5    1
    5     5     6    1
    6     5     7    1
    7     5     8    1
    8     8     9    1
    9     8    10    1
   10     8    11    1
   11    11    12    1
   12    11    13    1
   13    11    14    1
   14    14    15    1
   15    14    16    1
   16    14    17    1
   17    17    18    1
   18    17    19    1
   19    17    20    1
@<TRIPOS>SUBSTRUCTURE
       1 MOL1            1 RESIDUE      1      MOL     
@<SCITEGIC>MOL_PROPERTY
VConf Rank
SciTegic.value.IntegerValue
858

@<SCITEGIC>MOL_PROPERTY
Conf_Id
SciTegic.value.IntegerValue
26

@<SCITEGIC>MOL_PROPERTY
Delta U+W
SciTegic.value.DoubleValue
2.809

@<SCITEGIC>MOL_PROPERTY
U+W
SciTegic.value.DoubleValue
-8.969

@<SCITEGIC>MOL_PROPERTY
Grad RMS
SciTegic.value.DoubleValue
0.000000

@<SCITEGIC>MOL_PROPERTY
U
SciTegic.value.DoubleValue
49.216

@<SCITEGIC>MOL_PROPERTY
W
SciTegic.value.DoubleValue
-58.185

@<SCITEGIC>MOL_PROPERTY
W(PB)
SciTegic.value.DoubleValue
-60.088

@<SCITEGIC>MOL_PROPERTY
W(SA)
SciTegic.value.DoubleValue
1.903

@<SCITEGIC>MOL_PROPERTY
Valence
SciTegic.value.DoubleValue
2.929

@<SCITEGIC>MOL_PROPERTY
Coulomb
SciTegic.value.DoubleValue
46.006

@<SCITEGIC>MOL_PROPERTY
VdW
SciTegic.value.DoubleValue
0.281

@<SCITEGIC>MOL_PROPERTY
VdW6
SciTegic.value.DoubleValue
-4.909

@<SCITEGIC>MOL_PROPERTY
VdW12
SciTegic.value.DoubleValue
5.190

@<SCITEGIC>MOL_PROPERTY
Bond
SciTegic.value.DoubleValue
0.156

@<SCITEGIC>MOL_PROPERTY
Angle
SciTegic.value.DoubleValue
0.974

@<SCITEGIC>MOL_PROPERTY
Pdih
SciTegic.value.DoubleValue
1.799

@<SCITEGIC>MOL_PROPERTY
Idih
SciTegic.value.DoubleValue
0.000

@<SCITEGIC>MOL_PROPERTY
Tether
SciTegic.value.DoubleValue
0.000

@<TRIPOS>MOLECULE
guest-s11_confgen4.mol2 : confsearch ligand conformer 859
          20          19           1
SMALL
USER_CHARGES
 
@<TRIPOS>ATOM
       1    N1      22.318316   20.164480   22.171365 N.4        1 MOL1        -0.5919
       2    H1      21.745016   20.844832   22.678698 H          1 MOL1         0.3682
       3    H2      23.059986   19.858367   22.808749 H          1 MOL1         0.3682
       4    H3      22.773966   20.668417   21.403420 H          1 MOL1         0.3682
       5    C1      21.490752   18.998062   21.667770 C.3        1 MOL1         0.0252
       6    H4      22.157055   18.332009   21.112863 H          1 MOL1         0.0971
       7    H5      20.743443   19.387096   20.971269 H          1 MOL1         0.0971
       8    C2      20.791820   18.203996   22.789932 C.3        1 MOL1        -0.1369
       9    H6      20.281957   17.339133   22.346555 H          1 MOL1         0.0997
      10    H7      21.552797   17.789481   23.464268 H          1 MOL1         0.0997
      11    C3      19.778124   19.038946   23.615930 C.3        1 MOL1        -0.1329
      12    H8      20.318816   19.804988   24.187804 H          1 MOL1         0.0997
      13    H9      19.309131   18.385700   24.364604 H          1 MOL1         0.0997
      14    C4      18.668186   19.726455   22.780227 C.3        1 MOL1        -0.1305
      15    H10     18.024981   20.303807   23.459051 H          1 MOL1         0.0997
      16    H11     19.109779   20.457224   22.089236 H          1 MOL1         0.0997
      17    C5      17.789865   18.730033   21.989949 C.3        1 MOL1        -0.2320
      18    H12     17.349073   17.977503   22.656556 H          1 MOL1         0.1008
      19    H13     16.967688   19.256353   21.488056 H          1 MOL1         0.1008
      20    H14     18.368121   18.208512   21.217138 H          1 MOL1         0.1008
@<TRIPOS>BOND
    1     1     2    1
    2     1     3    1
    3     1     4    1
    4     1     5    1
    5     5     6    1
    6     5     7    1
    7     5     8    1
    8     8     9    1
    9     8    10    1
   10     8    11    1
   11    11    12    1
   12    11    13    1
   13    11    14    1
   14    14    15    1
   15    14    16    1
   16    14    17    1
   17    17    18    1
   18    17    19    1
   19    17    20    1
@<TRIPOS>SUBSTRUCTURE
       1 MOL1            1 RESIDUE      1      MOL     
@<SCITEGIC>MOL_PROPERTY
VConf Rank
SciTegic.value.IntegerValue
859

@<SCITEGIC>MOL_PROPERTY
Conf_Id
SciTegic.value.IntegerValue
2

@<SCITEGIC>MOL_PROPERTY
Delta U+W
SciTegic.value.DoubleValue
0.994

@<SCITEGIC>MOL_PROPERTY
U+W
SciTegic.value.DoubleValue
-10.784

@<SCITEGIC>MOL_PROPERTY
Grad RMS
SciTegic.value.DoubleValue
0.000000

@<SCITEGIC>MOL_PROPERTY
U
SciTegic.value.DoubleValue
47.562

@<SCITEGIC>MOL_PROPERTY
W
SciTegic.value.DoubleValue
-58.346

@<SCITEGIC>MOL_PROPERTY
W(PB)
SciTegic.value.DoubleValue
-60.221

@<SCITEGIC>MOL_PROPERTY
W(SA)
SciTegic.value.DoubleValue
1.875

@<SCITEGIC>MOL_PROPERTY
Valence
SciTegic.value.DoubleValue
2.149

@<SCITEGIC>MOL_PROPERTY
Coulomb
SciTegic.value.DoubleValue
45.034

@<SCITEGIC>MOL_PROPERTY
VdW
SciTegic.value.DoubleValue
0.378

@<SCITEGIC>MOL_PROPERTY
VdW6
SciTegic.value.DoubleValue
-5.599

@<SCITEGIC>MOL_PROPERTY
VdW12
SciTegic.value.DoubleValue
5.977

@<SCITEGIC>MOL_PROPERTY
Bond
SciTegic.value.DoubleValue
0.185

@<SCITEGIC>MOL_PROPERTY
Angle
SciTegic.value.DoubleValue
0.935

@<SCITEGIC>MOL_PROPERTY
Pdih
SciTegic.value.DoubleValue
1.028

@<SCITEGIC>MOL_PROPERTY
Idih
SciTegic.value.DoubleValue
0.000

@<SCITEGIC>MOL_PROPERTY
Tether
SciTegic.value.DoubleValue
0.000

@<TRIPOS>MOLECULE
guest-s11_confgen4.mol2 : confsearch ligand conformer 860
          20          19           1
SMALL
USER_CHARGES
 
@<TRIPOS>ATOM
       1    N1      19.237634   17.056805   23.400203 N.4        1 MOL1        -0.5919
       2    H1      18.283730   16.807892   23.120656 H          1 MOL1         0.3682
       3    H2      19.859734   16.776217   22.636527 H          1 MOL1         0.3682
       4    H3      19.473213   16.473343   24.209761 H          1 MOL1         0.3682
       5    C1      19.365670   18.534699   23.713943 C.3        1 MOL1         0.0252
       6    H4      20.392755   18.726227   24.035419 H          1 MOL1         0.0971
       7    H5      18.700906   18.755739   24.553431 H          1 MOL1         0.0971
       8    C2      19.012948   19.453093   22.526329 C.3        1 MOL1        -0.1369
       9    H6      17.969456   19.276935   22.233529 H          1 MOL1         0.0997
      10    H7      19.057491   20.497313   22.861221 H          1 MOL1         0.0997
      11    C3      19.929318   19.263596   21.288852 C.3        1 MOL1        -0.1329
      12    H8      19.625729   19.978221   20.511457 H          1 MOL1         0.0997
      13    H9      19.758310   18.267468   20.859094 H          1 MOL1         0.0997
      14    C4      21.444177   19.436237   21.568912 C.3        1 MOL1        -0.1305
      15    H10     21.790869   18.667796   22.273043 H          1 MOL1         0.0997
      16    H11     21.995764   19.260120   20.634790 H          1 MOL1         0.0997
      17    C5      21.812239   20.837430   22.107454 C.3        1 MOL1        -0.2320
      18    H12     21.374791   21.016047   23.097574 H          1 MOL1         0.1008
      19    H13     22.900943   20.938274   22.204608 H          1 MOL1         0.1008
      20    H14     21.461534   21.625821   21.428922 H          1 MOL1         0.1008
@<TRIPOS>BOND
    1     1     2    1
    2     1     3    1
    3     1     4    1
    4     1     5    1
    5     5     6    1
    6     5     7    1
    7     5     8    1
    8     8     9    1
    9     8    10    1
   10     8    11    1
   11    11    12    1
   12    11    13    1
   13    11    14    1
   14    14    15    1
   15    14    16    1
   16    14    17    1
   17    17    18    1
   18    17    19    1
   19    17    20    1
@<TRIPOS>SUBSTRUCTURE
       1 MOL1            1 RESIDUE      1      MOL     
@<SCITEGIC>MOL_PROPERTY
VConf Rank
SciTegic.value.IntegerValue
860

@<SCITEGIC>MOL_PROPERTY
Conf_Id
SciTegic.value.IntegerValue
1

@<SCITEGIC>MOL_PROPERTY
Delta U+W
SciTegic.value.DoubleValue
1.032

@<SCITEGIC>MOL_PROPERTY
U+W
SciTegic.value.DoubleValue
-10.746

@<SCITEGIC>MOL_PROPERTY
Grad RMS
SciTegic.value.DoubleValue
0.000000

@<SCITEGIC>MOL_PROPERTY
U
SciTegic.value.DoubleValue
47.562

@<SCITEGIC>MOL_PROPERTY
W
SciTegic.value.DoubleValue
-58.308

@<SCITEGIC>MOL_PROPERTY
W(PB)
SciTegic.value.DoubleValue
-60.184

@<SCITEGIC>MOL_PROPERTY
W(SA)
SciTegic.value.DoubleValue
1.877

@<SCITEGIC>MOL_PROPERTY
Valence
SciTegic.value.DoubleValue
2.149

@<SCITEGIC>MOL_PROPERTY
Coulomb
SciTegic.value.DoubleValue
45.035

@<SCITEGIC>MOL_PROPERTY
VdW
SciTegic.value.DoubleValue
0.378

@<SCITEGIC>MOL_PROPERTY
VdW6
SciTegic.value.DoubleValue
-5.599

@<SCITEGIC>MOL_PROPERTY
VdW12
SciTegic.value.DoubleValue
5.978

@<SCITEGIC>MOL_PROPERTY
Bond
SciTegic.value.DoubleValue
0.185

@<SCITEGIC>MOL_PROPERTY
Angle
SciTegic.value.DoubleValue
0.935

@<SCITEGIC>MOL_PROPERTY
Pdih
SciTegic.value.DoubleValue
1.028

@<SCITEGIC>MOL_PROPERTY
Idih
SciTegic.value.DoubleValue
0.000

@<SCITEGIC>MOL_PROPERTY
Tether
SciTegic.value.DoubleValue
0.000

@<TRIPOS>MOLECULE
guest-s11_confgen4.mol2 : confsearch ligand conformer 861
          20          19           1
SMALL
USER_CHARGES
 
@<TRIPOS>ATOM
       1    N1      20.725269   16.836000   22.385116 N.4        1 MOL1        -0.5919
       2    H1      19.956932   16.172074   22.247457 H          1 MOL1         0.3682
       3    H2      20.936942   17.247828   21.471729 H          1 MOL1         0.3682
       4    H3      21.546021   16.288321   22.663970 H          1 MOL1         0.3682
       5    C1      20.378841   17.894762   23.414080 C.3        1 MOL1         0.0252
       6    H4      21.246987   18.544957   23.532780 H          1 MOL1         0.0971
       7    H5      20.208672   17.384308   24.365923 H          1 MOL1         0.0971
       8    C2      19.129094   18.727009   23.056014 C.3        1 MOL1        -0.1369
       9    H6      18.283441   18.036865   22.936048 H          1 MOL1         0.0997
      10    H7      18.869351   19.375736   23.902953 H          1 MOL1         0.0997
      11    C3      19.265429   19.582536   21.767678 C.3        1 MOL1        -0.1329
      12    H8      18.254010   19.778992   21.385760 H          1 MOL1         0.0997
      13    H9      19.770756   19.013726   20.976588 H          1 MOL1         0.0997
      14    C4      19.961731   20.954335   21.960972 C.3        1 MOL1        -0.1305
      15    H10     19.915354   21.501189   21.008739 H          1 MOL1         0.0997
      16    H11     19.396347   21.558362   22.684349 H          1 MOL1         0.0997
      17    C5      21.438438   20.869158   22.405960 C.3        1 MOL1        -0.2320
      18    H12     22.008044   20.180074   21.769193 H          1 MOL1         0.1008
      19    H13     21.914298   21.856200   22.340896 H          1 MOL1         0.1008
      20    H14     21.523331   20.538327   23.447785 H          1 MOL1         0.1008
@<TRIPOS>BOND
    1     1     2    1
    2     1     3    1
    3     1     4    1
    4     1     5    1
    5     5     6    1
    6     5     7    1
    7     5     8    1
    8     8     9    1
    9     8    10    1
   10     8    11    1
   11    11    12    1
   12    11    13    1
   13    11    14    1
   14    14    15    1
   15    14    16    1
   16    14    17    1
   17    17    18    1
   18    17    19    1
   19    17    20    1
@<TRIPOS>SUBSTRUCTURE
       1 MOL1            1 RESIDUE      1      MOL     
@<SCITEGIC>MOL_PROPERTY
VConf Rank
SciTegic.value.IntegerValue
861

@<SCITEGIC>MOL_PROPERTY
Conf_Id
SciTegic.value.IntegerValue
80

@<SCITEGIC>MOL_PROPERTY
Delta U+W
SciTegic.value.DoubleValue
2.920

@<SCITEGIC>MOL_PROPERTY
U+W
SciTegic.value.DoubleValue
-8.857

@<SCITEGIC>MOL_PROPERTY
Grad RMS
SciTegic.value.DoubleValue
0.000000

@<SCITEGIC>MOL_PROPERTY
U
SciTegic.value.DoubleValue
49.434

@<SCITEGIC>MOL_PROPERTY
W
SciTegic.value.DoubleValue
-58.292

@<SCITEGIC>MOL_PROPERTY
W(PB)
SciTegic.value.DoubleValue
-60.170

@<SCITEGIC>MOL_PROPERTY
W(SA)
SciTegic.value.DoubleValue
1.879

@<SCITEGIC>MOL_PROPERTY
Valence
SciTegic.value.DoubleValue
3.798

@<SCITEGIC>MOL_PROPERTY
Coulomb
SciTegic.value.DoubleValue
45.253

@<SCITEGIC>MOL_PROPERTY
VdW
SciTegic.value.DoubleValue
0.384

@<SCITEGIC>MOL_PROPERTY
VdW6
SciTegic.value.DoubleValue
-5.595

@<SCITEGIC>MOL_PROPERTY
VdW12
SciTegic.value.DoubleValue
5.979

@<SCITEGIC>MOL_PROPERTY
Bond
SciTegic.value.DoubleValue
0.198

@<SCITEGIC>MOL_PROPERTY
Angle
SciTegic.value.DoubleValue
1.368

@<SCITEGIC>MOL_PROPERTY
Pdih
SciTegic.value.DoubleValue
2.231

@<SCITEGIC>MOL_PROPERTY
Idih
SciTegic.value.DoubleValue
0.000

@<SCITEGIC>MOL_PROPERTY
Tether
SciTegic.value.DoubleValue
0.000

@<TRIPOS>MOLECULE
guest-s11_confgen4.mol2 : confsearch ligand conformer 862
          20          19           1
SMALL
USER_CHARGES
 
@<TRIPOS>ATOM
       1    N1      18.376614   19.044084   23.938785 N.4        1 MOL1        -0.5919
       2    H1      18.075632   18.116999   24.255035 H          1 MOL1         0.3682
       3    H2      17.901538   19.730731   24.533902 H          1 MOL1         0.3682
       4    H3      18.016256   19.171738   22.988767 H          1 MOL1         0.3682
       5    C1      19.884256   19.197723   23.995067 C.3        1 MOL1         0.0252
       6    H4      20.186356   19.091090   25.040480 H          1 MOL1         0.0971
       7    H5      20.130947   20.211714   23.676505 H          1 MOL1         0.0971
       8    C2      20.648718   18.164801   23.139849 C.3        1 MOL1        -0.1369
       9    H6      21.725371   18.256998   23.334621 H          1 MOL1         0.0997
      10    H7      20.366053   17.161337   23.484785 H          1 MOL1         0.0997
      11    C3      20.385653   18.263285   21.612949 C.3        1 MOL1        -0.1329
      12    H8      19.319995   18.434751   21.413715 H          1 MOL1         0.0997
      13    H9      20.612083   17.284069   21.168776 H          1 MOL1         0.0997
      14    C4      21.240734   19.319186   20.865989 C.3        1 MOL1        -0.1305
      15    H10     22.307755   19.086859   20.989569 H          1 MOL1         0.0997
      16    H11     21.034625   19.230515   19.790069 H          1 MOL1         0.0997
      17    C5      20.979849   20.779540   21.296378 C.3        1 MOL1        -0.2320
      18    H12     21.381568   20.979056   22.296812 H          1 MOL1         0.1008
      19    H13     21.473689   21.475140   20.605588 H          1 MOL1         0.1008
      20    H14     19.906838   21.010630   21.294240 H          1 MOL1         0.1008
@<TRIPOS>BOND
    1     1     2    1
    2     1     3    1
    3     1     4    1
    4     1     5    1
    5     5     6    1
    6     5     7    1
    7     5     8    1
    8     8     9    1
    9     8    10    1
   10     8    11    1
   11    11    12    1
   12    11    13    1
   13    11    14    1
   14    14    15    1
   15    14    16    1
   16    14    17    1
   17    17    18    1
   18    17    19    1
   19    17    20    1
@<TRIPOS>SUBSTRUCTURE
       1 MOL1            1 RESIDUE      1      MOL     
@<SCITEGIC>MOL_PROPERTY
VConf Rank
SciTegic.value.IntegerValue
862

@<SCITEGIC>MOL_PROPERTY
Conf_Id
SciTegic.value.IntegerValue
65

@<SCITEGIC>MOL_PROPERTY
Delta U+W
SciTegic.value.DoubleValue
2.949

@<SCITEGIC>MOL_PROPERTY
U+W
SciTegic.value.DoubleValue
-8.829

@<SCITEGIC>MOL_PROPERTY
Grad RMS
SciTegic.value.DoubleValue
0.000000

@<SCITEGIC>MOL_PROPERTY
U
SciTegic.value.DoubleValue
49.435

@<SCITEGIC>MOL_PROPERTY
W
SciTegic.value.DoubleValue
-58.263

@<SCITEGIC>MOL_PROPERTY
W(PB)
SciTegic.value.DoubleValue
-60.125

@<SCITEGIC>MOL_PROPERTY
W(SA)
SciTegic.value.DoubleValue
1.862

@<SCITEGIC>MOL_PROPERTY
Valence
SciTegic.value.DoubleValue
3.797

@<SCITEGIC>MOL_PROPERTY
Coulomb
SciTegic.value.DoubleValue
45.253

@<SCITEGIC>MOL_PROPERTY
VdW
SciTegic.value.DoubleValue
0.384

@<SCITEGIC>MOL_PROPERTY
VdW6
SciTegic.value.DoubleValue
-5.596

@<SCITEGIC>MOL_PROPERTY
VdW12
SciTegic.value.DoubleValue
5.980

@<SCITEGIC>MOL_PROPERTY
Bond
SciTegic.value.DoubleValue
0.198

@<SCITEGIC>MOL_PROPERTY
Angle
SciTegic.value.DoubleValue
1.369

@<SCITEGIC>MOL_PROPERTY
Pdih
SciTegic.value.DoubleValue
2.230

@<SCITEGIC>MOL_PROPERTY
Idih
SciTegic.value.DoubleValue
0.000

@<SCITEGIC>MOL_PROPERTY
Tether
SciTegic.value.DoubleValue
0.000

@<TRIPOS>MOLECULE
guest-s11_confgen4.mol2 : confsearch ligand conformer 863
          20          19           1
SMALL
USER_CHARGES
 
@<TRIPOS>ATOM
       1    N1      21.288515   18.034477   21.417035 N.4        1 MOL1        -0.5919
       2    H1      22.256798   18.026251   21.079334 H          1 MOL1         0.3682
       3    H2      21.321748   18.074420   22.440277 H          1 MOL1         0.3682
       4    H3      20.875686   17.132238   21.160243 H          1 MOL1         0.3682
       5    C1      20.501389   19.196823   20.843502 C.3        1 MOL1         0.0252
       6    H4      20.509973   19.082798   19.756099 H          1 MOL1         0.0971
       7    H5      21.019298   20.127263   21.090994 H          1 MOL1         0.0971
       8    C2      19.039834   19.265099   21.330949 C.3        1 MOL1        -0.1369
       9    H6      18.466085   19.832733   20.586359 H          1 MOL1         0.0997
      10    H7      18.603180   18.257590   21.339092 H          1 MOL1         0.0997
      11    C3      18.833638   19.949119   22.709158 C.3        1 MOL1        -0.1329
      12    H8      17.752375   19.977124   22.903095 H          1 MOL1         0.0997
      13    H9      19.149139   21.000376   22.656396 H          1 MOL1         0.0997
      14    C4      19.518215   19.248001   23.910119 C.3        1 MOL1        -0.1305
      15    H10     18.869897   19.351540   24.791721 H          1 MOL1         0.0997
      16    H11     19.599597   18.167764   23.729208 H          1 MOL1         0.0997
      17    C5      20.896569   19.855572   24.263412 C.3        1 MOL1        -0.2320
      18    H12     21.585239   19.856762   23.411750 H          1 MOL1         0.1008
      19    H13     20.785674   20.895428   24.597659 H          1 MOL1         0.1008
      20    H14     21.368579   19.294840   25.080705 H          1 MOL1         0.1008
@<TRIPOS>BOND
    1     1     2    1
    2     1     3    1
    3     1     4    1
    4     1     5    1
    5     5     6    1
    6     5     7    1
    7     5     8    1
    8     8     9    1
    9     8    10    1
   10     8    11    1
   11    11    12    1
   12    11    13    1
   13    11    14    1
   14    14    15    1
   15    14    16    1
   16    14    17    1
   17    17    18    1
   18    17    19    1
   19    17    20    1
@<TRIPOS>SUBSTRUCTURE
       1 MOL1            1 RESIDUE      1      MOL     
@<SCITEGIC>MOL_PROPERTY
VConf Rank
SciTegic.value.IntegerValue
863

@<SCITEGIC>MOL_PROPERTY
Conf_Id
SciTegic.value.IntegerValue
77

@<SCITEGIC>MOL_PROPERTY
Delta U+W
SciTegic.value.DoubleValue
5.366

@<SCITEGIC>MOL_PROPERTY
U+W
SciTegic.value.DoubleValue
-6.412

@<SCITEGIC>MOL_PROPERTY
Grad RMS
SciTegic.value.DoubleValue
0.000000

@<SCITEGIC>MOL_PROPERTY
U
SciTegic.value.DoubleValue
51.542

@<SCITEGIC>MOL_PROPERTY
W
SciTegic.value.DoubleValue
-57.954

@<SCITEGIC>MOL_PROPERTY
W(PB)
SciTegic.value.DoubleValue
-59.811

@<SCITEGIC>MOL_PROPERTY
W(SA)
SciTegic.value.DoubleValue
1.857

@<SCITEGIC>MOL_PROPERTY
Valence
SciTegic.value.DoubleValue
5.347

@<SCITEGIC>MOL_PROPERTY
Coulomb
SciTegic.value.DoubleValue
45.870

@<SCITEGIC>MOL_PROPERTY
VdW
SciTegic.value.DoubleValue
0.325

@<SCITEGIC>MOL_PROPERTY
VdW6
SciTegic.value.DoubleValue
-6.161

@<SCITEGIC>MOL_PROPERTY
VdW12
SciTegic.value.DoubleValue
6.486

@<SCITEGIC>MOL_PROPERTY
Bond
SciTegic.value.DoubleValue
0.201

@<SCITEGIC>MOL_PROPERTY
Angle
SciTegic.value.DoubleValue
1.484

@<SCITEGIC>MOL_PROPERTY
Pdih
SciTegic.value.DoubleValue
3.662

@<SCITEGIC>MOL_PROPERTY
Idih
SciTegic.value.DoubleValue
0.000

@<SCITEGIC>MOL_PROPERTY
Tether
SciTegic.value.DoubleValue
0.000

@<TRIPOS>MOLECULE
guest-s11_confgen4.mol2 : confsearch ligand conformer 864
          20          19           1
SMALL
USER_CHARGES
 
@<TRIPOS>ATOM
       1    N1      19.296477   18.512813   24.128198 N.4        1 MOL1        -0.5919
       2    H1      19.851584   18.633055   24.981312 H          1 MOL1         0.3682
       3    H2      19.175187   19.440277   23.710076 H          1 MOL1         0.3682
       4    H3      18.369551   18.184627   24.419378 H          1 MOL1         0.3682
       5    C1      19.956064   17.551140   23.158820 C.3        1 MOL1         0.0252
       6    H4      19.294057   17.409241   22.300442 H          1 MOL1         0.0971
       7    H5      20.051737   16.592277   23.675491 H          1 MOL1         0.0971
       8    C2      21.349129   18.004401   22.676809 C.3        1 MOL1        -0.1369
       9    H6      21.921083   18.410135   23.521828 H          1 MOL1         0.0997
      10    H7      21.895723   17.110335   22.348644 H          1 MOL1         0.0997
      11    C3      21.344704   19.015296   21.498703 C.3        1 MOL1        -0.1329
      12    H8      20.889842   18.553982   20.611147 H          1 MOL1         0.0997
      13    H9      22.391976   19.205679   21.225752 H          1 MOL1         0.0997
      14    C4      20.670459   20.379444   21.793684 C.3        1 MOL1        -0.1305
      15    H10     20.756790   20.628323   22.859925 H          1 MOL1         0.0997
      16    H11     21.224127   21.165781   21.261344 H          1 MOL1         0.0997
      17    C5      19.196281   20.441959   21.328159 C.3        1 MOL1        -0.2320
      18    H12     18.743179   21.402521   21.606009 H          1 MOL1         0.1008
      19    H13     19.132319   20.350596   20.235967 H          1 MOL1         0.1008
      20    H14     18.585606   19.641990   21.760268 H          1 MOL1         0.1008
@<TRIPOS>BOND
    1     1     2    1
    2     1     3    1
    3     1     4    1
    4     1     5    1
    5     5     6    1
    6     5     7    1
    7     5     8    1
    8     8     9    1
    9     8    10    1
   10     8    11    1
   11    11    12    1
   12    11    13    1
   13    11    14    1
   14    14    15    1
   15    14    16    1
   16    14    17    1
   17    17    18    1
   18    17    19    1
   19    17    20    1
@<TRIPOS>SUBSTRUCTURE
       1 MOL1            1 RESIDUE      1      MOL     
@<SCITEGIC>MOL_PROPERTY
VConf Rank
SciTegic.value.IntegerValue
864

@<SCITEGIC>MOL_PROPERTY
Conf_Id
SciTegic.value.IntegerValue
67

@<SCITEGIC>MOL_PROPERTY
Delta U+W
SciTegic.value.DoubleValue
5.353

@<SCITEGIC>MOL_PROPERTY
U+W
SciTegic.value.DoubleValue
-6.425

@<SCITEGIC>MOL_PROPERTY
Grad RMS
SciTegic.value.DoubleValue
0.000000

@<SCITEGIC>MOL_PROPERTY
U
SciTegic.value.DoubleValue
51.541

@<SCITEGIC>MOL_PROPERTY
W
SciTegic.value.DoubleValue
-57.966

@<SCITEGIC>MOL_PROPERTY
W(PB)
SciTegic.value.DoubleValue
-59.821

@<SCITEGIC>MOL_PROPERTY
W(SA)
SciTegic.value.DoubleValue
1.855

@<SCITEGIC>MOL_PROPERTY
Valence
SciTegic.value.DoubleValue
5.347

@<SCITEGIC>MOL_PROPERTY
Coulomb
SciTegic.value.DoubleValue
45.870

@<SCITEGIC>MOL_PROPERTY
VdW
SciTegic.value.DoubleValue
0.325

@<SCITEGIC>MOL_PROPERTY
VdW6
SciTegic.value.DoubleValue
-6.161

@<SCITEGIC>MOL_PROPERTY
VdW12
SciTegic.value.DoubleValue
6.486

@<SCITEGIC>MOL_PROPERTY
Bond
SciTegic.value.DoubleValue
0.201

@<SCITEGIC>MOL_PROPERTY
Angle
SciTegic.value.DoubleValue
1.485

@<SCITEGIC>MOL_PROPERTY
Pdih
SciTegic.value.DoubleValue
3.662

@<SCITEGIC>MOL_PROPERTY
Idih
SciTegic.value.DoubleValue
0.000

@<SCITEGIC>MOL_PROPERTY
Tether
SciTegic.value.DoubleValue
0.000

@<TRIPOS>MOLECULE
guest-s11_confgen4.mol2 : confsearch ligand conformer 865
          20          19           1
SMALL
USER_CHARGES
 
@<TRIPOS>ATOM
       1    N1      22.940832   18.532891   23.948078 N.4        1 MOL1        -0.5919
       2    H1      23.019226   19.415262   24.463503 H          1 MOL1         0.3682
       3    H2      23.332925   17.801220   24.550174 H          1 MOL1         0.3682
       4    H3      23.555071   18.605806   23.130899 H          1 MOL1         0.3682
       5    C1      21.508591   18.231369   23.555320 C.3        1 MOL1         0.0252
       6    H4      20.919862   18.137593   24.471901 H          1 MOL1         0.0971
       7    H5      21.495914   17.267541   23.039189 H          1 MOL1         0.0971
       8    C2      20.889292   19.311547   22.650361 C.3        1 MOL1        -0.1369
       9    H6      20.918643   20.280599   23.166253 H          1 MOL1         0.0997
      10    H7      21.492705   19.413557   21.738465 H          1 MOL1         0.0997
      11    C3      19.431280   18.966543   22.273660 C.3        1 MOL1        -0.1329
      12    H8      18.831654   18.860065   23.188484 H          1 MOL1         0.0997
      13    H9      19.405027   17.994101   21.762329 H          1 MOL1         0.0997
      14    C4      18.799025   20.044508   21.364934 C.3        1 MOL1        -0.1305
      15    H10     18.821360   21.018622   21.873512 H          1 MOL1         0.0997
      16    H11     19.394582   20.152720   20.447520 H          1 MOL1         0.0997
      17    C5      17.342439   19.695658   20.991252 C.3        1 MOL1        -0.2320
      18    H12     16.713341   19.614486   21.887278 H          1 MOL1         0.1008
      19    H13     16.910980   20.472199   20.346372 H          1 MOL1         0.1008
      20    H14     17.291042   18.741900   20.450033 H          1 MOL1         0.1008
@<TRIPOS>BOND
    1     1     2    1
    2     1     3    1
    3     1     4    1
    4     1     5    1
    5     5     6    1
    6     5     7    1
    7     5     8    1
    8     8     9    1
    9     8    10    1
   10     8    11    1
   11    11    12    1
   12    11    13    1
   13    11    14    1
   14    14    15    1
   15    14    16    1
   16    14    17    1
   17    17    18    1
   18    17    19    1
   19    17    20    1
@<TRIPOS>SUBSTRUCTURE
       1 MOL1            1 RESIDUE      1      MOL     
@<SCITEGIC>MOL_PROPERTY
VConf Rank
SciTegic.value.IntegerValue
865

@<SCITEGIC>MOL_PROPERTY
Conf_Id
SciTegic.value.IntegerValue
72

@<SCITEGIC>MOL_PROPERTY
Delta U+W
SciTegic.value.DoubleValue
0.000

@<SCITEGIC>MOL_PROPERTY
U+W
SciTegic.value.DoubleValue
-11.778

@<SCITEGIC>MOL_PROPERTY
Grad RMS
SciTegic.value.DoubleValue
0.000000

@<SCITEGIC>MOL_PROPERTY
U
SciTegic.value.DoubleValue
45.772

@<SCITEGIC>MOL_PROPERTY
W
SciTegic.value.DoubleValue
-57.550

@<SCITEGIC>MOL_PROPERTY
W(PB)
SciTegic.value.DoubleValue
-59.511

@<SCITEGIC>MOL_PROPERTY
W(SA)
SciTegic.value.DoubleValue
1.961

@<SCITEGIC>MOL_PROPERTY
Valence
SciTegic.value.DoubleValue
1.299

@<SCITEGIC>MOL_PROPERTY
Coulomb
SciTegic.value.DoubleValue
44.177

@<SCITEGIC>MOL_PROPERTY
VdW
SciTegic.value.DoubleValue
0.297

@<SCITEGIC>MOL_PROPERTY
VdW6
SciTegic.value.DoubleValue
-3.490

@<SCITEGIC>MOL_PROPERTY
VdW12
SciTegic.value.DoubleValue
3.786

@<SCITEGIC>MOL_PROPERTY
Bond
SciTegic.value.DoubleValue
0.096

@<SCITEGIC>MOL_PROPERTY
Angle
SciTegic.value.DoubleValue
0.381

@<SCITEGIC>MOL_PROPERTY
Pdih
SciTegic.value.DoubleValue
0.822

@<SCITEGIC>MOL_PROPERTY
Idih
SciTegic.value.DoubleValue
0.000

@<SCITEGIC>MOL_PROPERTY
Tether
SciTegic.value.DoubleValue
0.000

@<TRIPOS>MOLECULE
guest-s11_confgen4.mol2 : confsearch ligand conformer 866
          20          19           1
SMALL
USER_CHARGES
 
@<TRIPOS>ATOM
       1    N1      17.613710   18.998499   24.157800 N.4        1 MOL1        -0.5919
       2    H1      17.893896   19.818531   24.704955 H          1 MOL1         0.3682
       3    H2      16.948366   19.322350   23.448715 H          1 MOL1         0.3682
       4    H3      17.095361   18.381215   24.791723 H          1 MOL1         0.3682
       5    C1      18.805272   18.296638   23.538006 C.3        1 MOL1         0.0252
       6    H4      18.437171   17.419766   22.998478 H          1 MOL1         0.0971
       7    H5      19.454095   17.953529   24.348446 H          1 MOL1         0.0971
       8    C2      19.606113   19.195983   22.579309 C.3        1 MOL1        -0.1369
       9    H6      18.946930   19.551068   21.776064 H          1 MOL1         0.0997
      10    H7      19.955194   20.080679   23.126596 H          1 MOL1         0.0997
      11    C3      20.809485   18.439166   21.969184 C.3        1 MOL1        -0.1329
      12    H8      20.447813   17.517715   21.491834 H          1 MOL1         0.0997
      13    H9      21.492992   18.123901   22.769817 H          1 MOL1         0.0997
      14    C4      21.589954   19.264835   20.917608 C.3        1 MOL1        -0.1305
      15    H10     22.356211   18.621811   20.462297 H          1 MOL1         0.0997
      16    H11     20.915161   19.562046   20.102626 H          1 MOL1         0.0997
      17    C5      22.277274   20.517984   21.506453 C.3        1 MOL1        -0.2320
      18    H12     22.936700   20.250984   22.342445 H          1 MOL1         0.1008
      19    H13     22.889131   21.015069   20.742587 H          1 MOL1         0.1008
      20    H14     21.543200   21.249126   21.866993 H          1 MOL1         0.1008
@<TRIPOS>BOND
    1     1     2    1
    2     1     3    1
    3     1     4    1
    4     1     5    1
    5     5     6    1
    6     5     7    1
    7     5     8    1
    8     8     9    1
    9     8    10    1
   10     8    11    1
   11    11    12    1
   12    11    13    1
   13    11    14    1
   14    14    15    1
   15    14    16    1
   16    14    17    1
   17    17    18    1
   18    17    19    1
   19    17    20    1
@<TRIPOS>SUBSTRUCTURE
       1 MOL1            1 RESIDUE      1      MOL     
@<SCITEGIC>MOL_PROPERTY
VConf Rank
SciTegic.value.IntegerValue
866

@<SCITEGIC>MOL_PROPERTY
Conf_Id
SciTegic.value.IntegerValue
42

@<SCITEGIC>MOL_PROPERTY
Delta U+W
SciTegic.value.DoubleValue
0.508

@<SCITEGIC>MOL_PROPERTY
U+W
SciTegic.value.DoubleValue
-11.270

@<SCITEGIC>MOL_PROPERTY
Grad RMS
SciTegic.value.DoubleValue
0.000000

@<SCITEGIC>MOL_PROPERTY
U
SciTegic.value.DoubleValue
46.486

@<SCITEGIC>MOL_PROPERTY
W
SciTegic.value.DoubleValue
-57.756

@<SCITEGIC>MOL_PROPERTY
W(PB)
SciTegic.value.DoubleValue
-59.705

@<SCITEGIC>MOL_PROPERTY
W(SA)
SciTegic.value.DoubleValue
1.949

@<SCITEGIC>MOL_PROPERTY
Valence
SciTegic.value.DoubleValue
1.806

@<SCITEGIC>MOL_PROPERTY
Coulomb
SciTegic.value.DoubleValue
44.248

@<SCITEGIC>MOL_PROPERTY
VdW
SciTegic.value.DoubleValue
0.433

@<SCITEGIC>MOL_PROPERTY
VdW6
SciTegic.value.DoubleValue
-4.089

@<SCITEGIC>MOL_PROPERTY
VdW12
SciTegic.value.DoubleValue
4.522

@<SCITEGIC>MOL_PROPERTY
Bond
SciTegic.value.DoubleValue
0.131

@<SCITEGIC>MOL_PROPERTY
Angle
SciTegic.value.DoubleValue
0.628

@<SCITEGIC>MOL_PROPERTY
Pdih
SciTegic.value.DoubleValue
1.047

@<SCITEGIC>MOL_PROPERTY
Idih
SciTegic.value.DoubleValue
0.000

@<SCITEGIC>MOL_PROPERTY
Tether
SciTegic.value.DoubleValue
0.000

@<TRIPOS>MOLECULE
guest-s11_confgen4.mol2 : confsearch ligand conformer 867
          20          19           1
SMALL
USER_CHARGES
 
@<TRIPOS>ATOM
       1    N1      17.959160   17.094998   23.069057 N.4        1 MOL1        -0.5919
       2    H1      17.474671   17.160440   22.168307 H          1 MOL1         0.3682
       3    H2      18.611764   16.307491   23.003679 H          1 MOL1         0.3682
       4    H3      17.253736   16.839147   23.767984 H          1 MOL1         0.3682
       5    C1      18.664578   18.387301   23.428113 C.3        1 MOL1         0.0252
       6    H4      19.131360   18.256110   24.408119 H          1 MOL1         0.0971
       7    H5      17.908420   19.172747   23.510538 H          1 MOL1         0.0971
       8    C2      19.730935   18.801160   22.398125 C.3        1 MOL1        -0.1369
       9    H6      20.474137   17.998627   22.310615 H          1 MOL1         0.0997
      10    H7      19.260783   18.916303   21.412472 H          1 MOL1         0.0997
      11    C3      20.422503   20.124379   22.803041 C.3        1 MOL1        -0.1329
      12    H8      20.932148   19.995474   23.768045 H          1 MOL1         0.0997
      13    H9      19.655376   20.895495   22.960014 H          1 MOL1         0.0997
      14    C4      21.432127   20.641499   21.749515 C.3        1 MOL1        -0.1305
      15    H10     20.921233   20.794650   20.788573 H          1 MOL1         0.0997
      16    H11     21.795496   21.629729   22.064638 H          1 MOL1         0.0997
      17    C5      22.645789   19.705254   21.549509 C.3        1 MOL1        -0.2320
      18    H12     22.345732   18.741654   21.119552 H          1 MOL1         0.1008
      19    H13     23.372508   20.159709   20.863723 H          1 MOL1         0.1008
      20    H14     23.157885   19.513249   22.501300 H          1 MOL1         0.1008
@<TRIPOS>BOND
    1     1     2    1
    2     1     3    1
    3     1     4    1
    4     1     5    1
    5     5     6    1
    6     5     7    1
    7     5     8    1
    8     8     9    1
    9     8    10    1
   10     8    11    1
   11    11    12    1
   12    11    13    1
   13    11    14    1
   14    14    15    1
   15    14    16    1
   16    14    17    1
   17    17    18    1
   18    17    19    1
   19    17    20    1
@<TRIPOS>SUBSTRUCTURE
       1 MOL1            1 RESIDUE      1      MOL     
@<SCITEGIC>MOL_PROPERTY
VConf Rank
SciTegic.value.IntegerValue
867

@<SCITEGIC>MOL_PROPERTY
Conf_Id
SciTegic.value.IntegerValue
41

@<SCITEGIC>MOL_PROPERTY
Delta U+W
SciTegic.value.DoubleValue
0.515

@<SCITEGIC>MOL_PROPERTY
U+W
SciTegic.value.DoubleValue
-11.263

@<SCITEGIC>MOL_PROPERTY
Grad RMS
SciTegic.value.DoubleValue
0.000000

@<SCITEGIC>MOL_PROPERTY
U
SciTegic.value.DoubleValue
46.486

@<SCITEGIC>MOL_PROPERTY
W
SciTegic.value.DoubleValue
-57.749

@<SCITEGIC>MOL_PROPERTY
W(PB)
SciTegic.value.DoubleValue
-59.685

@<SCITEGIC>MOL_PROPERTY
W(SA)
SciTegic.value.DoubleValue
1.936

@<SCITEGIC>MOL_PROPERTY
Valence
SciTegic.value.DoubleValue
1.806

@<SCITEGIC>MOL_PROPERTY
Coulomb
SciTegic.value.DoubleValue
44.248

@<SCITEGIC>MOL_PROPERTY
VdW
SciTegic.value.DoubleValue
0.433

@<SCITEGIC>MOL_PROPERTY
VdW6
SciTegic.value.DoubleValue
-4.089

@<SCITEGIC>MOL_PROPERTY
VdW12
SciTegic.value.DoubleValue
4.522

@<SCITEGIC>MOL_PROPERTY
Bond
SciTegic.value.DoubleValue
0.131

@<SCITEGIC>MOL_PROPERTY
Angle
SciTegic.value.DoubleValue
0.628

@<SCITEGIC>MOL_PROPERTY
Pdih
SciTegic.value.DoubleValue
1.047

@<SCITEGIC>MOL_PROPERTY
Idih
SciTegic.value.DoubleValue
0.000

@<SCITEGIC>MOL_PROPERTY
Tether
SciTegic.value.DoubleValue
0.000

@<TRIPOS>MOLECULE
guest-s11_confgen4.mol2 : confsearch ligand conformer 868
          20          19           1
SMALL
USER_CHARGES
 
@<TRIPOS>ATOM
       1    N1      21.328781   18.075204   20.194250 N.4        1 MOL1        -0.5919
       2    H1      22.114213   17.996531   19.539720 H          1 MOL1         0.3682
       3    H2      21.427589   17.313143   20.871332 H          1 MOL1         0.3682
       4    H3      20.474717   17.894628   19.657444 H          1 MOL1         0.3682
       5    C1      21.294267   19.431929   20.871206 C.3        1 MOL1         0.0252
       6    H4      21.232528   20.191110   20.086712 H          1 MOL1         0.0971
       7    H5      22.238913   19.570215   21.404087 H          1 MOL1         0.0971
       8    C2      20.116146   19.612707   21.848560 C.3        1 MOL1        -0.1369
       9    H6      20.115807   20.655693   22.188837 H          1 MOL1         0.0997
      10    H7      19.169636   19.456058   21.314455 H          1 MOL1         0.0997
      11    C3      20.200870   18.663283   23.070253 C.3        1 MOL1        -0.1329
      12    H8      21.139761   18.841531   23.612635 H          1 MOL1         0.0997
      13    H9      20.237868   17.622480   22.722450 H          1 MOL1         0.0997
      14    C4      19.006262   18.804643   24.044887 C.3        1 MOL1        -0.1305
      15    H10     18.065310   18.613778   23.510055 H          1 MOL1         0.0997
      16    H11     19.085386   18.023797   24.814277 H          1 MOL1         0.0997
      17    C5      18.938333   20.182982   24.741543 C.3        1 MOL1        -0.2320
      18    H12     18.733980   20.988290   24.025312 H          1 MOL1         0.1008
      19    H13     18.134532   20.196042   25.488993 H          1 MOL1         0.1008
      20    H14     19.879632   20.411705   25.257921 H          1 MOL1         0.1008
@<TRIPOS>BOND
    1     1     2    1
    2     1     3    1
    3     1     4    1
    4     1     5    1
    5     5     6    1
    6     5     7    1
    7     5     8    1
    8     8     9    1
    9     8    10    1
   10     8    11    1
   11    11    12    1
   12    11    13    1
   13    11    14    1
   14    14    15    1
   15    14    16    1
   16    14    17    1
   17    17    18    1
   18    17    19    1
   19    17    20    1
@<TRIPOS>SUBSTRUCTURE
       1 MOL1            1 RESIDUE      1      MOL     
@<SCITEGIC>MOL_PROPERTY
VConf Rank
SciTegic.value.IntegerValue
868

@<SCITEGIC>MOL_PROPERTY
Conf_Id
SciTegic.value.IntegerValue
33

@<SCITEGIC>MOL_PROPERTY
Delta U+W
SciTegic.value.DoubleValue
0.703

@<SCITEGIC>MOL_PROPERTY
U+W
SciTegic.value.DoubleValue
-11.075

@<SCITEGIC>MOL_PROPERTY
Grad RMS
SciTegic.value.DoubleValue
0.000000

@<SCITEGIC>MOL_PROPERTY
U
SciTegic.value.DoubleValue
47.080

@<SCITEGIC>MOL_PROPERTY
W
SciTegic.value.DoubleValue
-58.154

@<SCITEGIC>MOL_PROPERTY
W(PB)
SciTegic.value.DoubleValue
-60.053

@<SCITEGIC>MOL_PROPERTY
W(SA)
SciTegic.value.DoubleValue
1.899

@<SCITEGIC>MOL_PROPERTY
Valence
SciTegic.value.DoubleValue
1.943

@<SCITEGIC>MOL_PROPERTY
Coulomb
SciTegic.value.DoubleValue
44.572

@<SCITEGIC>MOL_PROPERTY
VdW
SciTegic.value.DoubleValue
0.565

@<SCITEGIC>MOL_PROPERTY
VdW6
SciTegic.value.DoubleValue
-4.575

@<SCITEGIC>MOL_PROPERTY
VdW12
SciTegic.value.DoubleValue
5.139

@<SCITEGIC>MOL_PROPERTY
Bond
SciTegic.value.DoubleValue
0.158

@<SCITEGIC>MOL_PROPERTY
Angle
SciTegic.value.DoubleValue
0.700

@<SCITEGIC>MOL_PROPERTY
Pdih
SciTegic.value.DoubleValue
1.085

@<SCITEGIC>MOL_PROPERTY
Idih
SciTegic.value.DoubleValue
0.000

@<SCITEGIC>MOL_PROPERTY
Tether
SciTegic.value.DoubleValue
0.000

@<TRIPOS>MOLECULE
guest-s11_confgen4.mol2 : confsearch ligand conformer 869
          20          19           1
SMALL
USER_CHARGES
 
@<TRIPOS>ATOM
       1    N1      20.585658   21.854525   22.354053 N.4        1 MOL1        -0.5919
       2    H1      21.174905   22.680534   22.502367 H          1 MOL1         0.3682
       3    H2      19.965921   22.068498   21.566439 H          1 MOL1         0.3682
       4    H3      19.995693   21.756123   23.185435 H          1 MOL1         0.3682
       5    C1      21.414722   20.610486   22.098745 C.3        1 MOL1         0.0252
       6    H4      22.066648   20.453163   22.962275 H          1 MOL1         0.0971
       7    H5      22.046026   20.807146   21.227894 H          1 MOL1         0.0971
       8    C2      20.576352   19.342388   21.843944 C.3        1 MOL1        -0.1369
       9    H6      19.910295   19.509512   20.987131 H          1 MOL1         0.0997
      10    H7      21.261942   18.535723   21.556078 H          1 MOL1         0.0997
      11    C3      19.751341   18.911392   23.082780 C.3        1 MOL1        -0.1329
      12    H8      19.093401   19.735550   23.388539 H          1 MOL1         0.0997
      13    H9      20.426185   18.724145   23.929535 H          1 MOL1         0.0997
      14    C4      18.874334   17.659925   22.834457 C.3        1 MOL1        -0.1305
      15    H10     18.241924   17.492410   23.717598 H          1 MOL1         0.0997
      16    H11     18.187837   17.847086   21.996866 H          1 MOL1         0.0997
      17    C5      19.692964   16.377712   22.559615 C.3        1 MOL1        -0.2320
      18    H12     20.409861   16.185493   23.368389 H          1 MOL1         0.1008
      19    H13     19.028937   15.506688   22.486596 H          1 MOL1         0.1008
      20    H14     20.248507   16.447235   21.616318 H          1 MOL1         0.1008
@<TRIPOS>BOND
    1     1     2    1
    2     1     3    1
    3     1     4    1
    4     1     5    1
    5     5     6    1
    6     5     7    1
    7     5     8    1
    8     8     9    1
    9     8    10    1
   10     8    11    1
   11    11    12    1
   12    11    13    1
   13    11    14    1
   14    14    15    1
   15    14    16    1
   16    14    17    1
   17    17    18    1
   18    17    19    1
   19    17    20    1
@<TRIPOS>SUBSTRUCTURE
       1 MOL1            1 RESIDUE      1      MOL     
@<SCITEGIC>MOL_PROPERTY
VConf Rank
SciTegic.value.IntegerValue
869

@<SCITEGIC>MOL_PROPERTY
Conf_Id
SciTegic.value.IntegerValue
24

@<SCITEGIC>MOL_PROPERTY
Delta U+W
SciTegic.value.DoubleValue
0.847

@<SCITEGIC>MOL_PROPERTY
U+W
SciTegic.value.DoubleValue
-10.931

@<SCITEGIC>MOL_PROPERTY
Grad RMS
SciTegic.value.DoubleValue
0.000000

@<SCITEGIC>MOL_PROPERTY
U
SciTegic.value.DoubleValue
47.080

@<SCITEGIC>MOL_PROPERTY
W
SciTegic.value.DoubleValue
-58.011

@<SCITEGIC>MOL_PROPERTY
W(PB)
SciTegic.value.DoubleValue
-59.914

@<SCITEGIC>MOL_PROPERTY
W(SA)
SciTegic.value.DoubleValue
1.903

@<SCITEGIC>MOL_PROPERTY
Valence
SciTegic.value.DoubleValue
1.943

@<SCITEGIC>MOL_PROPERTY
Coulomb
SciTegic.value.DoubleValue
44.572

@<SCITEGIC>MOL_PROPERTY
VdW
SciTegic.value.DoubleValue
0.565

@<SCITEGIC>MOL_PROPERTY
VdW6
SciTegic.value.DoubleValue
-4.575

@<SCITEGIC>MOL_PROPERTY
VdW12
SciTegic.value.DoubleValue
5.140

@<SCITEGIC>MOL_PROPERTY
Bond
SciTegic.value.DoubleValue
0.158

@<SCITEGIC>MOL_PROPERTY
Angle
SciTegic.value.DoubleValue
0.700

@<SCITEGIC>MOL_PROPERTY
Pdih
SciTegic.value.DoubleValue
1.085

@<SCITEGIC>MOL_PROPERTY
Idih
SciTegic.value.DoubleValue
0.000

@<SCITEGIC>MOL_PROPERTY
Tether
SciTegic.value.DoubleValue
0.000

@<TRIPOS>MOLECULE
guest-s11_confgen4.mol2 : confsearch ligand conformer 870
          20          19           1
SMALL
USER_CHARGES
 
@<TRIPOS>ATOM
       1    N1      20.225957   18.628418   25.172956 N.4        1 MOL1        -0.5919
       2    H1      19.719240   19.104104   25.926913 H          1 MOL1         0.3682
       3    H2      19.758207   17.729255   25.021502 H          1 MOL1         0.3682
       4    H3      21.164681   18.423377   25.529417 H          1 MOL1         0.3682
       5    C1      20.270166   19.463977   23.909543 C.3        1 MOL1         0.0252
       6    H4      20.753186   20.414929   24.149874 H          1 MOL1         0.0971
       7    H5      19.240106   19.668403   23.605950 H          1 MOL1         0.0971
       8    C2      21.024628   18.776999   22.755647 C.3        1 MOL1        -0.1369
       9    H6      22.044645   18.538809   23.085179 H          1 MOL1         0.0997
      10    H7      20.546004   17.817994   22.519678 H          1 MOL1         0.0997
      11    C3      21.103670   19.657067   21.483158 C.3        1 MOL1        -0.1329
      12    H8      21.662142   19.113784   20.708422 H          1 MOL1         0.0997
      13    H9      21.694965   20.555730   21.707361 H          1 MOL1         0.0997
      14    C4      19.732108   20.093438   20.907291 C.3        1 MOL1        -0.1305
      15    H10     19.201666   20.728467   21.629888 H          1 MOL1         0.0997
      16    H11     19.907611   20.724064   20.024460 H          1 MOL1         0.0997
      17    C5      18.830962   18.905794   20.499313 C.3        1 MOL1        -0.2320
      18    H12     17.915220   19.267100   20.013743 H          1 MOL1         0.1008
      19    H13     19.346754   18.243432   19.792057 H          1 MOL1         0.1008
      20    H14     18.529363   18.311150   21.370560 H          1 MOL1         0.1008
@<TRIPOS>BOND
    1     1     2    1
    2     1     3    1
    3     1     4    1
    4     1     5    1
    5     5     6    1
    6     5     7    1
    7     5     8    1
    8     8     9    1
    9     8    10    1
   10     8    11    1
   11    11    12    1
   12    11    13    1
   13    11    14    1
   14    14    15    1
   15    14    16    1
   16    14    17    1
   17    17    18    1
   18    17    19    1
   19    17    20    1
@<TRIPOS>SUBSTRUCTURE
       1 MOL1            1 RESIDUE      1      MOL     
@<SCITEGIC>MOL_PROPERTY
VConf Rank
SciTegic.value.IntegerValue
870

@<SCITEGIC>MOL_PROPERTY
Conf_Id
SciTegic.value.IntegerValue
64

@<SCITEGIC>MOL_PROPERTY
Delta U+W
SciTegic.value.DoubleValue
0.707

@<SCITEGIC>MOL_PROPERTY
U+W
SciTegic.value.DoubleValue
-11.070

@<SCITEGIC>MOL_PROPERTY
Grad RMS
SciTegic.value.DoubleValue
0.000000

@<SCITEGIC>MOL_PROPERTY
U
SciTegic.value.DoubleValue
47.077

@<SCITEGIC>MOL_PROPERTY
W
SciTegic.value.DoubleValue
-58.148

@<SCITEGIC>MOL_PROPERTY
W(PB)
SciTegic.value.DoubleValue
-60.054

@<SCITEGIC>MOL_PROPERTY
W(SA)
SciTegic.value.DoubleValue
1.906

@<SCITEGIC>MOL_PROPERTY
Valence
SciTegic.value.DoubleValue
2.039

@<SCITEGIC>MOL_PROPERTY
Coulomb
SciTegic.value.DoubleValue
44.655

@<SCITEGIC>MOL_PROPERTY
VdW
SciTegic.value.DoubleValue
0.383

@<SCITEGIC>MOL_PROPERTY
VdW6
SciTegic.value.DoubleValue
-4.912

@<SCITEGIC>MOL_PROPERTY
VdW12
SciTegic.value.DoubleValue
5.295

@<SCITEGIC>MOL_PROPERTY
Bond
SciTegic.value.DoubleValue
0.159

@<SCITEGIC>MOL_PROPERTY
Angle
SciTegic.value.DoubleValue
0.856

@<SCITEGIC>MOL_PROPERTY
Pdih
SciTegic.value.DoubleValue
1.024

@<SCITEGIC>MOL_PROPERTY
Idih
SciTegic.value.DoubleValue
0.000

@<SCITEGIC>MOL_PROPERTY
Tether
SciTegic.value.DoubleValue
0.000

@<TRIPOS>MOLECULE
guest-s11_confgen4.mol2 : confsearch ligand conformer 871
          20          19           1
SMALL
USER_CHARGES
 
@<TRIPOS>ATOM
       1    N1      17.575668   18.291589   22.719303 N.4        1 MOL1        -0.5919
       2    H1      17.126816   18.049886   21.830248 H          1 MOL1         0.3682
       3    H2      17.846028   17.411465   23.169314 H          1 MOL1         0.3682
       4    H3      16.854228   18.718391   23.309941 H          1 MOL1         0.3682
       5    C1      18.761118   19.214771   22.522406 C.3        1 MOL1         0.0252
       6    H4      19.168501   19.453130   23.508413 H          1 MOL1         0.0971
       7    H5      18.397179   20.140044   22.067655 H          1 MOL1         0.0971
       8    C2      19.864665   18.602775   21.639079 C.3        1 MOL1        -0.1369
       9    H6      20.224305   17.669083   22.090004 H          1 MOL1         0.0997
      10    H7      19.435219   18.329038   20.666246 H          1 MOL1         0.0997
      11    C3      21.051822   19.570501   21.406357 C.3        1 MOL1        -0.1329
      12    H8      20.694935   20.443422   20.842324 H          1 MOL1         0.0997
      13    H9      21.792593   19.077081   20.762106 H          1 MOL1         0.0997
      14    C4      21.752295   20.063931   22.698289 C.3        1 MOL1        -0.1305
      15    H10     22.560292   20.753758   22.416932 H          1 MOL1         0.0997
      16    H11     21.053226   20.652295   23.308130 H          1 MOL1         0.0997
      17    C5      22.348572   18.919777   23.549390 C.3        1 MOL1        -0.2320
      18    H12     23.036193   18.303266   22.956038 H          1 MOL1         0.1008
      19    H13     22.911249   19.326220   24.399746 H          1 MOL1         0.1008
      20    H14     21.564311   18.268210   23.954397 H          1 MOL1         0.1008
@<TRIPOS>BOND
    1     1     2    1
    2     1     3    1
    3     1     4    1
    4     1     5    1
    5     5     6    1
    6     5     7    1
    7     5     8    1
    8     8     9    1
    9     8    10    1
   10     8    11    1
   11    11    12    1
   12    11    13    1
   13    11    14    1
   14    14    15    1
   15    14    16    1
   16    14    17    1
   17    17    18    1
   18    17    19    1
   19    17    20    1
@<TRIPOS>SUBSTRUCTURE
       1 MOL1            1 RESIDUE      1      MOL     
@<SCITEGIC>MOL_PROPERTY
VConf Rank
SciTegic.value.IntegerValue
871

@<SCITEGIC>MOL_PROPERTY
Conf_Id
SciTegic.value.IntegerValue
22

@<SCITEGIC>MOL_PROPERTY
Delta U+W
SciTegic.value.DoubleValue
0.731

@<SCITEGIC>MOL_PROPERTY
U+W
SciTegic.value.DoubleValue
-11.047

@<SCITEGIC>MOL_PROPERTY
Grad RMS
SciTegic.value.DoubleValue
0.000000

@<SCITEGIC>MOL_PROPERTY
U
SciTegic.value.DoubleValue
47.078

@<SCITEGIC>MOL_PROPERTY
W
SciTegic.value.DoubleValue
-58.125

@<SCITEGIC>MOL_PROPERTY
W(PB)
SciTegic.value.DoubleValue
-60.031

@<SCITEGIC>MOL_PROPERTY
W(SA)
SciTegic.value.DoubleValue
1.906

@<SCITEGIC>MOL_PROPERTY
Valence
SciTegic.value.DoubleValue
2.039

@<SCITEGIC>MOL_PROPERTY
Coulomb
SciTegic.value.DoubleValue
44.655

@<SCITEGIC>MOL_PROPERTY
VdW
SciTegic.value.DoubleValue
0.383

@<SCITEGIC>MOL_PROPERTY
VdW6
SciTegic.value.DoubleValue
-4.913

@<SCITEGIC>MOL_PROPERTY
VdW12
SciTegic.value.DoubleValue
5.296

@<SCITEGIC>MOL_PROPERTY
Bond
SciTegic.value.DoubleValue
0.159

@<SCITEGIC>MOL_PROPERTY
Angle
SciTegic.value.DoubleValue
0.856

@<SCITEGIC>MOL_PROPERTY
Pdih
SciTegic.value.DoubleValue
1.024

@<SCITEGIC>MOL_PROPERTY
Idih
SciTegic.value.DoubleValue
0.000

@<SCITEGIC>MOL_PROPERTY
Tether
SciTegic.value.DoubleValue
0.000

@<TRIPOS>MOLECULE
guest-s11_confgen4.mol2 : confsearch ligand conformer 872
          20          19           1
SMALL
USER_CHARGES
 
@<TRIPOS>ATOM
       1    N1      18.386113   21.243886   22.035266 N.4        1 MOL1        -0.5919
       2    H1      18.835652   22.031395   22.512843 H          1 MOL1         0.3682
       3    H2      18.313956   21.494336   21.044116 H          1 MOL1         0.3682
       4    H3      17.428477   21.184122   22.397004 H          1 MOL1         0.3682
       5    C1      19.147070   19.949172   22.238415 C.3        1 MOL1         0.0252
       6    H4      18.600139   19.151614   21.728352 H          1 MOL1         0.0971
       7    H5      19.156334   19.734618   23.309465 H          1 MOL1         0.0971
       8    C2      20.591532   20.008189   21.710479 C.3        1 MOL1        -0.1369
       9    H6      20.571709   20.341806   20.664425 H          1 MOL1         0.0997
      10    H7      21.153640   20.769218   22.267845 H          1 MOL1         0.0997
      11    C3      21.341347   18.653573   21.779071 C.3        1 MOL1        -0.1329
      12    H8      22.318618   18.792859   21.296275 H          1 MOL1         0.0997
      13    H9      20.817336   17.899478   21.175662 H          1 MOL1         0.0997
      14    C4      21.587833   18.115348   23.212511 C.3        1 MOL1        -0.1305
      15    H10     22.497846   17.499105   23.197555 H          1 MOL1         0.0997
      16    H11     21.797616   18.945933   23.900886 H          1 MOL1         0.0997
      17    C5      20.434987   17.241984   23.761161 C.3        1 MOL1        -0.2320
      18    H12     19.508829   17.810901   23.893219 H          1 MOL1         0.1008
      19    H13     20.224748   16.399895   23.089083 H          1 MOL1         0.1008
      20    H14     20.704824   16.825178   24.740162 H          1 MOL1         0.1008
@<TRIPOS>BOND
    1     1     2    1
    2     1     3    1
    3     1     4    1
    4     1     5    1
    5     5     6    1
    6     5     7    1
    7     5     8    1
    8     8     9    1
    9     8    10    1
   10     8    11    1
   11    11    12    1
   12    11    13    1
   13    11    14    1
   14    14    15    1
   15    14    16    1
   16    14    17    1
   17    17    18    1
   18    17    19    1
   19    17    20    1
@<TRIPOS>SUBSTRUCTURE
       1 MOL1            1 RESIDUE      1      MOL     
@<SCITEGIC>MOL_PROPERTY
VConf Rank
SciTegic.value.IntegerValue
872

@<SCITEGIC>MOL_PROPERTY
Conf_Id
SciTegic.value.IntegerValue
61

@<SCITEGIC>MOL_PROPERTY
Delta U+W
SciTegic.value.DoubleValue
2.669

@<SCITEGIC>MOL_PROPERTY
U+W
SciTegic.value.DoubleValue
-9.108

@<SCITEGIC>MOL_PROPERTY
Grad RMS
SciTegic.value.DoubleValue
0.000000

@<SCITEGIC>MOL_PROPERTY
U
SciTegic.value.DoubleValue
48.916

@<SCITEGIC>MOL_PROPERTY
W
SciTegic.value.DoubleValue
-58.025

@<SCITEGIC>MOL_PROPERTY
W(PB)
SciTegic.value.DoubleValue
-59.935

@<SCITEGIC>MOL_PROPERTY
W(SA)
SciTegic.value.DoubleValue
1.911

@<SCITEGIC>MOL_PROPERTY
Valence
SciTegic.value.DoubleValue
3.785

@<SCITEGIC>MOL_PROPERTY
Coulomb
SciTegic.value.DoubleValue
44.716

@<SCITEGIC>MOL_PROPERTY
VdW
SciTegic.value.DoubleValue
0.415

@<SCITEGIC>MOL_PROPERTY
VdW6
SciTegic.value.DoubleValue
-4.836

@<SCITEGIC>MOL_PROPERTY
VdW12
SciTegic.value.DoubleValue
5.251

@<SCITEGIC>MOL_PROPERTY
Bond
SciTegic.value.DoubleValue
0.175

@<SCITEGIC>MOL_PROPERTY
Angle
SciTegic.value.DoubleValue
1.195

@<SCITEGIC>MOL_PROPERTY
Pdih
SciTegic.value.DoubleValue
2.415

@<SCITEGIC>MOL_PROPERTY
Idih
SciTegic.value.DoubleValue
0.000

@<SCITEGIC>MOL_PROPERTY
Tether
SciTegic.value.DoubleValue
0.000

@<TRIPOS>MOLECULE
guest-s11_confgen4.mol2 : confsearch ligand conformer 873
          20          19           1
SMALL
USER_CHARGES
 
@<TRIPOS>ATOM
       1    N1      19.743033   19.294148   20.177429 N.4        1 MOL1        -0.5919
       2    H1      19.167204   19.768776   19.474016 H          1 MOL1         0.3682
       3    H2      20.329725   18.620652   19.674937 H          1 MOL1         0.3682
       4    H3      19.107832   18.756343   20.772669 H          1 MOL1         0.3682
       5    C1      20.575070   20.277255   20.978545 C.3        1 MOL1         0.0252
       6    H4      19.903862   21.003788   21.444343 H          1 MOL1         0.0971
       7    H5      21.209235   20.811711   20.265979 H          1 MOL1         0.0971
       8    C2      21.469538   19.625584   22.054057 C.3        1 MOL1        -0.1369
       9    H6      21.944127   18.720882   21.651449 H          1 MOL1         0.0997
      10    H7      22.289127   20.322738   22.273422 H          1 MOL1         0.0997
      11    C3      20.746529   19.308565   23.388421 C.3        1 MOL1        -0.1329
      12    H8      20.327679   20.234313   23.806778 H          1 MOL1         0.0997
      13    H9      21.498515   18.960454   24.110096 H          1 MOL1         0.0997
      14    C4      19.631417   18.242615   23.276224 C.3        1 MOL1        -0.1305
      15    H10     18.797591   18.632057   22.678797 H          1 MOL1         0.0997
      16    H11     20.016350   17.351773   22.760308 H          1 MOL1         0.0997
      17    C5      19.092935   17.835090   24.664381 C.3        1 MOL1        -0.2320
      18    H12     18.296477   17.085963   24.566835 H          1 MOL1         0.1008
      19    H13     19.887593   17.401456   25.285429 H          1 MOL1         0.1008
      20    H14     18.677457   18.700866   25.196433 H          1 MOL1         0.1008
@<TRIPOS>BOND
    1     1     2    1
    2     1     3    1
    3     1     4    1
    4     1     5    1
    5     5     6    1
    6     5     7    1
    7     5     8    1
    8     8     9    1
    9     8    10    1
   10     8    11    1
   11    11    12    1
   12    11    13    1
   13    11    14    1
   14    14    15    1
   15    14    16    1
   16    14    17    1
   17    17    18    1
   18    17    19    1
   19    17    20    1
@<TRIPOS>SUBSTRUCTURE
       1 MOL1            1 RESIDUE      1      MOL     
@<SCITEGIC>MOL_PROPERTY
VConf Rank
SciTegic.value.IntegerValue
873

@<SCITEGIC>MOL_PROPERTY
Conf_Id
SciTegic.value.IntegerValue
69

@<SCITEGIC>MOL_PROPERTY
Delta U+W
SciTegic.value.DoubleValue
2.811

@<SCITEGIC>MOL_PROPERTY
U+W
SciTegic.value.DoubleValue
-8.967

@<SCITEGIC>MOL_PROPERTY
Grad RMS
SciTegic.value.DoubleValue
0.000000

@<SCITEGIC>MOL_PROPERTY
U
SciTegic.value.DoubleValue
49.216

@<SCITEGIC>MOL_PROPERTY
W
SciTegic.value.DoubleValue
-58.183

@<SCITEGIC>MOL_PROPERTY
W(PB)
SciTegic.value.DoubleValue
-60.064

@<SCITEGIC>MOL_PROPERTY
W(SA)
SciTegic.value.DoubleValue
1.881

@<SCITEGIC>MOL_PROPERTY
Valence
SciTegic.value.DoubleValue
2.929

@<SCITEGIC>MOL_PROPERTY
Coulomb
SciTegic.value.DoubleValue
46.006

@<SCITEGIC>MOL_PROPERTY
VdW
SciTegic.value.DoubleValue
0.281

@<SCITEGIC>MOL_PROPERTY
VdW6
SciTegic.value.DoubleValue
-4.909

@<SCITEGIC>MOL_PROPERTY
VdW12
SciTegic.value.DoubleValue
5.190

@<SCITEGIC>MOL_PROPERTY
Bond
SciTegic.value.DoubleValue
0.156

@<SCITEGIC>MOL_PROPERTY
Angle
SciTegic.value.DoubleValue
0.974

@<SCITEGIC>MOL_PROPERTY
Pdih
SciTegic.value.DoubleValue
1.799

@<SCITEGIC>MOL_PROPERTY
Idih
SciTegic.value.DoubleValue
0.000

@<SCITEGIC>MOL_PROPERTY
Tether
SciTegic.value.DoubleValue
0.000

@<TRIPOS>MOLECULE
guest-s11_confgen4.mol2 : confsearch ligand conformer 874
          20          19           1
SMALL
USER_CHARGES
 
@<TRIPOS>ATOM
       1    N1      19.152955   17.571054   23.787790 N.4        1 MOL1        -0.5919
       2    H1      20.120024   17.881170   23.912829 H          1 MOL1         0.3682
       3    H2      18.588466   18.046414   24.498908 H          1 MOL1         0.3682
       4    H3      19.126736   16.569962   24.008631 H          1 MOL1         0.3682
       5    C1      18.644357   17.850622   22.386456 C.3        1 MOL1         0.0252
       6    H4      17.617359   17.478138   22.340764 H          1 MOL1         0.0971
       7    H5      19.244270   17.275028   21.676430 H          1 MOL1         0.0971
       8    C2      18.653847   19.342501   21.991886 C.3        1 MOL1        -0.1369
       9    H6      17.923949   19.478149   21.182738 H          1 MOL1         0.0997
      10    H7      18.292720   19.955502   22.828326 H          1 MOL1         0.0997
      11    C3      20.023031   19.867635   21.488556 C.3        1 MOL1        -0.1329
      12    H8      19.883251   20.896841   21.129841 H          1 MOL1         0.0997
      13    H9      20.341767   19.280946   20.615820 H          1 MOL1         0.0997
      14    C4      21.144498   19.858308   22.553702 C.3        1 MOL1        -0.1305
      15    H10     20.792958   20.351152   23.471018 H          1 MOL1         0.0997
      16    H11     21.405093   18.825390   22.816422 H          1 MOL1         0.0997
      17    C5      22.415951   20.571948   22.046607 C.3        1 MOL1        -0.2320
      18    H12     22.210982   21.623791   21.808203 H          1 MOL1         0.1008
      19    H13     23.204633   20.548137   22.809801 H          1 MOL1         0.1008
      20    H14     22.807227   20.086695   21.142891 H          1 MOL1         0.1008
@<TRIPOS>BOND
    1     1     2    1
    2     1     3    1
    3     1     4    1
    4     1     5    1
    5     5     6    1
    6     5     7    1
    7     5     8    1
    8     8     9    1
    9     8    10    1
   10     8    11    1
   11    11    12    1
   12    11    13    1
   13    11    14    1
   14    14    15    1
   15    14    16    1
   16    14    17    1
   17    17    18    1
   18    17    19    1
   19    17    20    1
@<TRIPOS>SUBSTRUCTURE
       1 MOL1            1 RESIDUE      1      MOL     
@<SCITEGIC>MOL_PROPERTY
VConf Rank
SciTegic.value.IntegerValue
874

@<SCITEGIC>MOL_PROPERTY
Conf_Id
SciTegic.value.IntegerValue
26

@<SCITEGIC>MOL_PROPERTY
Delta U+W
SciTegic.value.DoubleValue
2.809

@<SCITEGIC>MOL_PROPERTY
U+W
SciTegic.value.DoubleValue
-8.969

@<SCITEGIC>MOL_PROPERTY
Grad RMS
SciTegic.value.DoubleValue
0.000000

@<SCITEGIC>MOL_PROPERTY
U
SciTegic.value.DoubleValue
49.216

@<SCITEGIC>MOL_PROPERTY
W
SciTegic.value.DoubleValue
-58.185

@<SCITEGIC>MOL_PROPERTY
W(PB)
SciTegic.value.DoubleValue
-60.088

@<SCITEGIC>MOL_PROPERTY
W(SA)
SciTegic.value.DoubleValue
1.903

@<SCITEGIC>MOL_PROPERTY
Valence
SciTegic.value.DoubleValue
2.929

@<SCITEGIC>MOL_PROPERTY
Coulomb
SciTegic.value.DoubleValue
46.006

@<SCITEGIC>MOL_PROPERTY
VdW
SciTegic.value.DoubleValue
0.281

@<SCITEGIC>MOL_PROPERTY
VdW6
SciTegic.value.DoubleValue
-4.909

@<SCITEGIC>MOL_PROPERTY
VdW12
SciTegic.value.DoubleValue
5.190

@<SCITEGIC>MOL_PROPERTY
Bond
SciTegic.value.DoubleValue
0.156

@<SCITEGIC>MOL_PROPERTY
Angle
SciTegic.value.DoubleValue
0.974

@<SCITEGIC>MOL_PROPERTY
Pdih
SciTegic.value.DoubleValue
1.799

@<SCITEGIC>MOL_PROPERTY
Idih
SciTegic.value.DoubleValue
0.000

@<SCITEGIC>MOL_PROPERTY
Tether
SciTegic.value.DoubleValue
0.000

@<TRIPOS>MOLECULE
guest-s11_confgen4.mol2 : confsearch ligand conformer 875
          20          19           1
SMALL
USER_CHARGES
 
@<TRIPOS>ATOM
       1    N1      22.526489   18.904994   22.663064 N.4        1 MOL1        -0.5919
       2    H1      22.096859   18.325968   23.390446 H          1 MOL1         0.3682
       3    H2      22.983571   18.270051   22.001277 H          1 MOL1         0.3682
       4    H3      23.268177   19.451660   23.112915 H          1 MOL1         0.3682
       5    C1      21.506757   19.794176   21.978593 C.3        1 MOL1         0.0252
       6    H4      22.037158   20.402479   21.240927 H          1 MOL1         0.0971
       7    H5      21.082650   20.465656   22.729712 H          1 MOL1         0.0971
       8    C2      20.374466   19.014405   21.279903 C.3        1 MOL1        -0.1369
       9    H6      19.729461   19.726577   20.749517 H          1 MOL1         0.0997
      10    H7      20.808104   18.368708   20.504873 H          1 MOL1         0.0997
      11    C3      19.516362   18.151309   22.242045 C.3        1 MOL1        -0.1329
      12    H8      20.132038   17.336688   22.646449 H          1 MOL1         0.0997
      13    H9      18.720331   17.662516   21.663586 H          1 MOL1         0.0997
      14    C4      18.877925   18.930563   23.420261 C.3        1 MOL1        -0.1305
      15    H10     18.315130   18.222707   24.044804 H          1 MOL1         0.0997
      16    H11     19.660182   19.348317   24.068375 H          1 MOL1         0.0997
      17    C5      17.924752   20.058557   22.964264 C.3        1 MOL1        -0.2320
      18    H12     17.141722   19.669534   22.300571 H          1 MOL1         0.1008
      19    H13     17.432116   20.519250   23.830264 H          1 MOL1         0.1008
      20    H14     18.464619   20.851279   22.431596 H          1 MOL1         0.1008
@<TRIPOS>BOND
    1     1     2    1
    2     1     3    1
    3     1     4    1
    4     1     5    1
    5     5     6    1
    6     5     7    1
    7     5     8    1
    8     8     9    1
    9     8    10    1
   10     8    11    1
   11    11    12    1
   12    11    13    1
   13    11    14    1
   14    14    15    1
   15    14    16    1
   16    14    17    1
   17    17    18    1
   18    17    19    1
   19    17    20    1
@<TRIPOS>SUBSTRUCTURE
       1 MOL1            1 RESIDUE      1      MOL     
@<SCITEGIC>MOL_PROPERTY
VConf Rank
SciTegic.value.IntegerValue
875

@<SCITEGIC>MOL_PROPERTY
Conf_Id
SciTegic.value.IntegerValue
2

@<SCITEGIC>MOL_PROPERTY
Delta U+W
SciTegic.value.DoubleValue
0.994

@<SCITEGIC>MOL_PROPERTY
U+W
SciTegic.value.DoubleValue
-10.784

@<SCITEGIC>MOL_PROPERTY
Grad RMS
SciTegic.value.DoubleValue
0.000000

@<SCITEGIC>MOL_PROPERTY
U
SciTegic.value.DoubleValue
47.562

@<SCITEGIC>MOL_PROPERTY
W
SciTegic.value.DoubleValue
-58.346

@<SCITEGIC>MOL_PROPERTY
W(PB)
SciTegic.value.DoubleValue
-60.221

@<SCITEGIC>MOL_PROPERTY
W(SA)
SciTegic.value.DoubleValue
1.875

@<SCITEGIC>MOL_PROPERTY
Valence
SciTegic.value.DoubleValue
2.149

@<SCITEGIC>MOL_PROPERTY
Coulomb
SciTegic.value.DoubleValue
45.034

@<SCITEGIC>MOL_PROPERTY
VdW
SciTegic.value.DoubleValue
0.378

@<SCITEGIC>MOL_PROPERTY
VdW6
SciTegic.value.DoubleValue
-5.599

@<SCITEGIC>MOL_PROPERTY
VdW12
SciTegic.value.DoubleValue
5.977

@<SCITEGIC>MOL_PROPERTY
Bond
SciTegic.value.DoubleValue
0.185

@<SCITEGIC>MOL_PROPERTY
Angle
SciTegic.value.DoubleValue
0.935

@<SCITEGIC>MOL_PROPERTY
Pdih
SciTegic.value.DoubleValue
1.028

@<SCITEGIC>MOL_PROPERTY
Idih
SciTegic.value.DoubleValue
0.000

@<SCITEGIC>MOL_PROPERTY
Tether
SciTegic.value.DoubleValue
0.000

@<TRIPOS>MOLECULE
guest-s11_confgen4.mol2 : confsearch ligand conformer 876
          20          19           1
SMALL
USER_CHARGES
 
@<TRIPOS>ATOM
       1    N1      20.679831   16.764762   21.988365 N.4        1 MOL1        -0.5919
       2    H1      21.607922   16.423619   22.257263 H          1 MOL1         0.3682
       3    H2      20.105521   16.779648   22.836237 H          1 MOL1         0.3682
       4    H3      20.273409   16.061893   21.362182 H          1 MOL1         0.3682
       5    C1      20.749115   18.130582   21.333589 C.3        1 MOL1         0.0252
       6    H4      19.735874   18.419968   21.042844 H          1 MOL1         0.0971
       7    H5      21.348195   18.033859   20.424053 H          1 MOL1         0.0971
       8    C2      21.361973   19.220251   22.236537 C.3        1 MOL1        -0.1369
       9    H6      22.390693   18.936151   22.494723 H          1 MOL1         0.0997
      10    H7      21.444159   20.151339   21.661338 H          1 MOL1         0.0997
      11    C3      20.562342   19.482276   23.539965 C.3        1 MOL1        -0.1329
      12    H8      21.052440   20.291496   24.098684 H          1 MOL1         0.0997
      13    H9      20.621777   18.596849   24.187030 H          1 MOL1         0.0997
      14    C4      19.071327   19.848335   23.325693 C.3        1 MOL1        -0.1305
      15    H10     18.538272   19.011887   22.853779 H          1 MOL1         0.0997
      16    H11     18.600300   19.989955   24.308509 H          1 MOL1         0.0997
      17    C5      18.869374   21.131209   22.487667 C.3        1 MOL1        -0.2320
      18    H12     19.222775   20.999120   21.457491 H          1 MOL1         0.1008
      19    H13     17.805150   21.395878   22.440088 H          1 MOL1         0.1008
      20    H14     19.406763   21.980199   22.929693 H          1 MOL1         0.1008
@<TRIPOS>BOND
    1     1     2    1
    2     1     3    1
    3     1     4    1
    4     1     5    1
    5     5     6    1
    6     5     7    1
    7     5     8    1
    8     8     9    1
    9     8    10    1
   10     8    11    1
   11    11    12    1
   12    11    13    1
   13    11    14    1
   14    14    15    1
   15    14    16    1
   16    14    17    1
   17    17    18    1
   18    17    19    1
   19    17    20    1
@<TRIPOS>SUBSTRUCTURE
       1 MOL1            1 RESIDUE      1      MOL     
@<SCITEGIC>MOL_PROPERTY
VConf Rank
SciTegic.value.IntegerValue
876

@<SCITEGIC>MOL_PROPERTY
Conf_Id
SciTegic.value.IntegerValue
1

@<SCITEGIC>MOL_PROPERTY
Delta U+W
SciTegic.value.DoubleValue
1.032

@<SCITEGIC>MOL_PROPERTY
U+W
SciTegic.value.DoubleValue
-10.746

@<SCITEGIC>MOL_PROPERTY
Grad RMS
SciTegic.value.DoubleValue
0.000000

@<SCITEGIC>MOL_PROPERTY
U
SciTegic.value.DoubleValue
47.562

@<SCITEGIC>MOL_PROPERTY
W
SciTegic.value.DoubleValue
-58.308

@<SCITEGIC>MOL_PROPERTY
W(PB)
SciTegic.value.DoubleValue
-60.184

@<SCITEGIC>MOL_PROPERTY
W(SA)
SciTegic.value.DoubleValue
1.877

@<SCITEGIC>MOL_PROPERTY
Valence
SciTegic.value.DoubleValue
2.149

@<SCITEGIC>MOL_PROPERTY
Coulomb
SciTegic.value.DoubleValue
45.035

@<SCITEGIC>MOL_PROPERTY
VdW
SciTegic.value.DoubleValue
0.378

@<SCITEGIC>MOL_PROPERTY
VdW6
SciTegic.value.DoubleValue
-5.599

@<SCITEGIC>MOL_PROPERTY
VdW12
SciTegic.value.DoubleValue
5.978

@<SCITEGIC>MOL_PROPERTY
Bond
SciTegic.value.DoubleValue
0.185

@<SCITEGIC>MOL_PROPERTY
Angle
SciTegic.value.DoubleValue
0.935

@<SCITEGIC>MOL_PROPERTY
Pdih
SciTegic.value.DoubleValue
1.028

@<SCITEGIC>MOL_PROPERTY
Idih
SciTegic.value.DoubleValue
0.000

@<SCITEGIC>MOL_PROPERTY
Tether
SciTegic.value.DoubleValue
0.000

@<TRIPOS>MOLECULE
guest-s11_confgen4.mol2 : confsearch ligand conformer 877
          20          19           1
SMALL
USER_CHARGES
 
@<TRIPOS>ATOM
       1    N1      18.717474   17.505852   21.745233 N.4        1 MOL1        -0.5919
       2    H1      18.151979   17.705621   20.914331 H          1 MOL1         0.3682
       3    H2      19.650480   17.237676   21.419248 H          1 MOL1         0.3682
       4    H3      18.307784   16.679347   22.192880 H          1 MOL1         0.3682
       5    C1      18.769692   18.690446   22.690625 C.3        1 MOL1         0.0252
       6    H4      19.358252   18.399382   23.562060 H          1 MOL1         0.0971
       7    H5      17.747949   18.888154   23.026003 H          1 MOL1         0.0971
       8    C2      19.349746   19.971371   22.053850 C.3        1 MOL1        -0.1369
       9    H6      18.737207   20.223582   21.178062 H          1 MOL1         0.0997
      10    H7      19.233371   20.809865   22.753139 H          1 MOL1         0.0997
      11    C3      20.834563   19.863055   21.613498 C.3        1 MOL1        -0.1329
      12    H8      21.010054   20.617193   20.833816 H          1 MOL1         0.0997
      13    H9      21.026278   18.895468   21.132100 H          1 MOL1         0.0997
      14    C4      21.872782   20.109971   22.738294 C.3        1 MOL1        -0.1305
      15    H10     22.875907   20.099261   22.289326 H          1 MOL1         0.0997
      16    H11     21.737684   21.118917   23.152490 H          1 MOL1         0.0997
      17    C5      21.837665   19.075229   23.884595 C.3        1 MOL1        -0.2320
      18    H12     21.855406   18.048729   23.496339 H          1 MOL1         0.1008
      19    H13     22.709825   19.200899   24.539173 H          1 MOL1         0.1008
      20    H14     20.945192   19.200742   24.508929 H          1 MOL1         0.1008
@<TRIPOS>BOND
    1     1     2    1
    2     1     3    1
    3     1     4    1
    4     1     5    1
    5     5     6    1
    6     5     7    1
    7     5     8    1
    8     8     9    1
    9     8    10    1
   10     8    11    1
   11    11    12    1
   12    11    13    1
   13    11    14    1
   14    14    15    1
   15    14    16    1
   16    14    17    1
   17    17    18    1
   18    17    19    1
   19    17    20    1
@<TRIPOS>SUBSTRUCTURE
       1 MOL1            1 RESIDUE      1      MOL     
@<SCITEGIC>MOL_PROPERTY
VConf Rank
SciTegic.value.IntegerValue
877

@<SCITEGIC>MOL_PROPERTY
Conf_Id
SciTegic.value.IntegerValue
80

@<SCITEGIC>MOL_PROPERTY
Delta U+W
SciTegic.value.DoubleValue
2.920

@<SCITEGIC>MOL_PROPERTY
U+W
SciTegic.value.DoubleValue
-8.857

@<SCITEGIC>MOL_PROPERTY
Grad RMS
SciTegic.value.DoubleValue
0.000000

@<SCITEGIC>MOL_PROPERTY
U
SciTegic.value.DoubleValue
49.434

@<SCITEGIC>MOL_PROPERTY
W
SciTegic.value.DoubleValue
-58.292

@<SCITEGIC>MOL_PROPERTY
W(PB)
SciTegic.value.DoubleValue
-60.170

@<SCITEGIC>MOL_PROPERTY
W(SA)
SciTegic.value.DoubleValue
1.879

@<SCITEGIC>MOL_PROPERTY
Valence
SciTegic.value.DoubleValue
3.798

@<SCITEGIC>MOL_PROPERTY
Coulomb
SciTegic.value.DoubleValue
45.253

@<SCITEGIC>MOL_PROPERTY
VdW
SciTegic.value.DoubleValue
0.384

@<SCITEGIC>MOL_PROPERTY
VdW6
SciTegic.value.DoubleValue
-5.595

@<SCITEGIC>MOL_PROPERTY
VdW12
SciTegic.value.DoubleValue
5.979

@<SCITEGIC>MOL_PROPERTY
Bond
SciTegic.value.DoubleValue
0.198

@<SCITEGIC>MOL_PROPERTY
Angle
SciTegic.value.DoubleValue
1.368

@<SCITEGIC>MOL_PROPERTY
Pdih
SciTegic.value.DoubleValue
2.231

@<SCITEGIC>MOL_PROPERTY
Idih
SciTegic.value.DoubleValue
0.000

@<SCITEGIC>MOL_PROPERTY
Tether
SciTegic.value.DoubleValue
0.000

@<TRIPOS>MOLECULE
guest-s11_confgen4.mol2 : confsearch ligand conformer 878
          20          19           1
SMALL
USER_CHARGES
 
@<TRIPOS>ATOM
       1    N1      21.640112   17.542915   21.696710 N.4        1 MOL1        -0.5919
       2    H1      21.247019   16.639055   21.416347 H          1 MOL1         0.3682
       3    H2      22.604848   17.568651   21.350345 H          1 MOL1         0.3682
       4    H3      21.689495   17.547503   22.719563 H          1 MOL1         0.3682
       5    C1      20.820549   18.703644   21.166820 C.3        1 MOL1         0.0252
       6    H4      20.850044   18.654959   20.074903 H          1 MOL1         0.0971
       7    H5      21.310062   19.628952   21.474552 H          1 MOL1         0.0971
       8    C2      19.349368   18.692894   21.633980 C.3        1 MOL1        -0.1369
       9    H6      18.795238   19.481826   21.108486 H          1 MOL1         0.0997
      10    H7      18.897558   17.744572   21.314023 H          1 MOL1         0.0997
      11    C3      19.152895   18.850823   23.165901 C.3        1 MOL1        -0.1329
      12    H8      19.889918   18.250720   23.714894 H          1 MOL1         0.0997
      13    H9      18.175118   18.421946   23.425595 H          1 MOL1         0.0997
      14    C4      19.169182   20.312511   23.682857 C.3        1 MOL1        -0.1305
      15    H10     18.365741   20.885675   23.199383 H          1 MOL1         0.0997
      16    H11     18.929221   20.301071   24.755348 H          1 MOL1         0.0997
      17    C5      20.513347   21.048446   23.489086 C.3        1 MOL1        -0.2320
      18    H12     20.689373   21.287631   22.433692 H          1 MOL1         0.1008
      19    H13     20.511346   21.998251   24.039353 H          1 MOL1         0.1008
      20    H14     21.354097   20.448203   23.860043 H          1 MOL1         0.1008
@<TRIPOS>BOND
    1     1     2    1
    2     1     3    1
    3     1     4    1
    4     1     5    1
    5     5     6    1
    6     5     7    1
    7     5     8    1
    8     8     9    1
    9     8    10    1
   10     8    11    1
   11    11    12    1
   12    11    13    1
   13    11    14    1
   14    14    15    1
   15    14    16    1
   16    14    17    1
   17    17    18    1
   18    17    19    1
   19    17    20    1
@<TRIPOS>SUBSTRUCTURE
       1 MOL1            1 RESIDUE      1      MOL     
@<SCITEGIC>MOL_PROPERTY
VConf Rank
SciTegic.value.IntegerValue
878

@<SCITEGIC>MOL_PROPERTY
Conf_Id
SciTegic.value.IntegerValue
65

@<SCITEGIC>MOL_PROPERTY
Delta U+W
SciTegic.value.DoubleValue
2.949

@<SCITEGIC>MOL_PROPERTY
U+W
SciTegic.value.DoubleValue
-8.829

@<SCITEGIC>MOL_PROPERTY
Grad RMS
SciTegic.value.DoubleValue
0.000000

@<SCITEGIC>MOL_PROPERTY
U
SciTegic.value.DoubleValue
49.435

@<SCITEGIC>MOL_PROPERTY
W
SciTegic.value.DoubleValue
-58.263

@<SCITEGIC>MOL_PROPERTY
W(PB)
SciTegic.value.DoubleValue
-60.125

@<SCITEGIC>MOL_PROPERTY
W(SA)
SciTegic.value.DoubleValue
1.862

@<SCITEGIC>MOL_PROPERTY
Valence
SciTegic.value.DoubleValue
3.797

@<SCITEGIC>MOL_PROPERTY
Coulomb
SciTegic.value.DoubleValue
45.253

@<SCITEGIC>MOL_PROPERTY
VdW
SciTegic.value.DoubleValue
0.384

@<SCITEGIC>MOL_PROPERTY
VdW6
SciTegic.value.DoubleValue
-5.596

@<SCITEGIC>MOL_PROPERTY
VdW12
SciTegic.value.DoubleValue
5.980

@<SCITEGIC>MOL_PROPERTY
Bond
SciTegic.value.DoubleValue
0.198

@<SCITEGIC>MOL_PROPERTY
Angle
SciTegic.value.DoubleValue
1.369

@<SCITEGIC>MOL_PROPERTY
Pdih
SciTegic.value.DoubleValue
2.230

@<SCITEGIC>MOL_PROPERTY
Idih
SciTegic.value.DoubleValue
0.000

@<SCITEGIC>MOL_PROPERTY
Tether
SciTegic.value.DoubleValue
0.000

@<TRIPOS>MOLECULE
guest-s11_confgen4.mol2 : confsearch ligand conformer 879
          20          19           1
SMALL
USER_CHARGES
 
@<TRIPOS>ATOM
       1    N1      19.360205   17.440535   22.106543 N.4        1 MOL1        -0.5919
       2    H1      18.809742   16.736497   22.609537 H          1 MOL1         0.3682
       3    H2      18.789758   18.289510   22.046902 H          1 MOL1         0.3682
       4    H3      19.488771   17.091716   21.151450 H          1 MOL1         0.3682
       5    C1      20.686613   17.712366   22.789407 C.3        1 MOL1         0.0252
       6    H4      21.233922   16.766084   22.812312 H          1 MOL1         0.0971
       7    H5      20.493801   18.017644   23.821312 H          1 MOL1         0.0971
       8    C2      21.549752   18.776063   22.080924 C.3        1 MOL1        -0.1369
       9    H6      22.594756   18.605486   22.371922 H          1 MOL1         0.0997
      10    H7      21.513617   18.620782   20.994466 H          1 MOL1         0.0997
      11    C3      21.197551   20.248684   22.423277 C.3        1 MOL1        -0.1329
      12    H8      21.919184   20.889380   21.897654 H          1 MOL1         0.0997
      13    H9      21.365418   20.434853   23.493149 H          1 MOL1         0.0997
      14    C4      19.771182   20.703352   22.021696 C.3        1 MOL1        -0.1305
      15    H10     19.816435   21.753148   21.698993 H          1 MOL1         0.0997
      16    H11     19.420591   20.140588   21.146113 H          1 MOL1         0.0997
      17    C5      18.753867   20.609773   23.183648 C.3        1 MOL1        -0.2320
      18    H12     18.699341   19.603865   23.613500 H          1 MOL1         0.1008
      19    H13     19.028405   21.298558   23.993293 H          1 MOL1         0.1008
      20    H14     17.748512   20.887333   22.841008 H          1 MOL1         0.1008
@<TRIPOS>BOND
    1     1     2    1
    2     1     3    1
    3     1     4    1
    4     1     5    1
    5     5     6    1
    6     5     7    1
    7     5     8    1
    8     8     9    1
    9     8    10    1
   10     8    11    1
   11    11    12    1
   12    11    13    1
   13    11    14    1
   14    14    15    1
   15    14    16    1
   16    14    17    1
   17    17    18    1
   18    17    19    1
   19    17    20    1
@<TRIPOS>SUBSTRUCTURE
       1 MOL1            1 RESIDUE      1      MOL     
@<SCITEGIC>MOL_PROPERTY
VConf Rank
SciTegic.value.IntegerValue
879

@<SCITEGIC>MOL_PROPERTY
Conf_Id
SciTegic.value.IntegerValue
77

@<SCITEGIC>MOL_PROPERTY
Delta U+W
SciTegic.value.DoubleValue
5.366

@<SCITEGIC>MOL_PROPERTY
U+W
SciTegic.value.DoubleValue
-6.412

@<SCITEGIC>MOL_PROPERTY
Grad RMS
SciTegic.value.DoubleValue
0.000000

@<SCITEGIC>MOL_PROPERTY
U
SciTegic.value.DoubleValue
51.542

@<SCITEGIC>MOL_PROPERTY
W
SciTegic.value.DoubleValue
-57.954

@<SCITEGIC>MOL_PROPERTY
W(PB)
SciTegic.value.DoubleValue
-59.811

@<SCITEGIC>MOL_PROPERTY
W(SA)
SciTegic.value.DoubleValue
1.857

@<SCITEGIC>MOL_PROPERTY
Valence
SciTegic.value.DoubleValue
5.347

@<SCITEGIC>MOL_PROPERTY
Coulomb
SciTegic.value.DoubleValue
45.870

@<SCITEGIC>MOL_PROPERTY
VdW
SciTegic.value.DoubleValue
0.325

@<SCITEGIC>MOL_PROPERTY
VdW6
SciTegic.value.DoubleValue
-6.161

@<SCITEGIC>MOL_PROPERTY
VdW12
SciTegic.value.DoubleValue
6.486

@<SCITEGIC>MOL_PROPERTY
Bond
SciTegic.value.DoubleValue
0.201

@<SCITEGIC>MOL_PROPERTY
Angle
SciTegic.value.DoubleValue
1.484

@<SCITEGIC>MOL_PROPERTY
Pdih
SciTegic.value.DoubleValue
3.662

@<SCITEGIC>MOL_PROPERTY
Idih
SciTegic.value.DoubleValue
0.000

@<SCITEGIC>MOL_PROPERTY
Tether
SciTegic.value.DoubleValue
0.000

@<TRIPOS>MOLECULE
guest-s11_confgen4.mol2 : confsearch ligand conformer 880
          20          19           1
SMALL
USER_CHARGES
 
@<TRIPOS>ATOM
       1    N1      19.481319   17.691774   21.200212 N.4        1 MOL1        -0.5919
       2    H1      19.033514   18.075999   20.362210 H          1 MOL1         0.3682
       3    H2      20.464500   17.979272   21.179573 H          1 MOL1         0.3682
       4    H3      19.458936   16.670600   21.108634 H          1 MOL1         0.3682
       5    C1      18.795015   18.159079   22.469139 C.3        1 MOL1         0.0252
       6    H4      19.268777   17.670227   23.324578 H          1 MOL1         0.0971
       7    H5      17.757570   17.817999   22.415356 H          1 MOL1         0.0971
       8    C2      18.812491   19.688820   22.664066 C.3        1 MOL1        -0.1369
       9    H6      18.599380   20.187720   21.709346 H          1 MOL1         0.0997
      10    H7      17.978874   19.949802   23.329485 H          1 MOL1         0.0997
      11    C3      20.113427   20.261099   23.288506 C.3        1 MOL1        -0.1329
      12    H8      20.250635   19.859148   24.301952 H          1 MOL1         0.0997
      13    H9      19.966521   21.342201   23.419520 H          1 MOL1         0.0997
      14    C4      21.402200   20.050005   22.453627 C.3        1 MOL1        -0.1305
      15    H10     21.163377   20.005613   21.382527 H          1 MOL1         0.0997
      16    H11     22.046726   20.931982   22.575951 H          1 MOL1         0.0997
      17    C5      22.213502   18.807628   22.891928 C.3        1 MOL1        -0.2320
      18    H12     23.085341   18.665163   22.240175 H          1 MOL1         0.1008
      19    H13     22.584993   18.931513   23.917583 H          1 MOL1         0.1008
      20    H14     21.618777   17.888224   22.867590 H          1 MOL1         0.1008
@<TRIPOS>BOND
    1     1     2    1
    2     1     3    1
    3     1     4    1
    4     1     5    1
    5     5     6    1
    6     5     7    1
    7     5     8    1
    8     8     9    1
    9     8    10    1
   10     8    11    1
   11    11    12    1
   12    11    13    1
   13    11    14    1
   14    14    15    1
   15    14    16    1
   16    14    17    1
   17    17    18    1
   18    17    19    1
   19    17    20    1
@<TRIPOS>SUBSTRUCTURE
       1 MOL1            1 RESIDUE      1      MOL     
@<SCITEGIC>MOL_PROPERTY
VConf Rank
SciTegic.value.IntegerValue
880

@<SCITEGIC>MOL_PROPERTY
Conf_Id
SciTegic.value.IntegerValue
67

@<SCITEGIC>MOL_PROPERTY
Delta U+W
SciTegic.value.DoubleValue
5.353

@<SCITEGIC>MOL_PROPERTY
U+W
SciTegic.value.DoubleValue
-6.425

@<SCITEGIC>MOL_PROPERTY
Grad RMS
SciTegic.value.DoubleValue
0.000000

@<SCITEGIC>MOL_PROPERTY
U
SciTegic.value.DoubleValue
51.541

@<SCITEGIC>MOL_PROPERTY
W
SciTegic.value.DoubleValue
-57.966

@<SCITEGIC>MOL_PROPERTY
W(PB)
SciTegic.value.DoubleValue
-59.821

@<SCITEGIC>MOL_PROPERTY
W(SA)
SciTegic.value.DoubleValue
1.855

@<SCITEGIC>MOL_PROPERTY
Valence
SciTegic.value.DoubleValue
5.347

@<SCITEGIC>MOL_PROPERTY
Coulomb
SciTegic.value.DoubleValue
45.870

@<SCITEGIC>MOL_PROPERTY
VdW
SciTegic.value.DoubleValue
0.325

@<SCITEGIC>MOL_PROPERTY
VdW6
SciTegic.value.DoubleValue
-6.161

@<SCITEGIC>MOL_PROPERTY
VdW12
SciTegic.value.DoubleValue
6.486

@<SCITEGIC>MOL_PROPERTY
Bond
SciTegic.value.DoubleValue
0.201

@<SCITEGIC>MOL_PROPERTY
Angle
SciTegic.value.DoubleValue
1.485

@<SCITEGIC>MOL_PROPERTY
Pdih
SciTegic.value.DoubleValue
3.662

@<SCITEGIC>MOL_PROPERTY
Idih
SciTegic.value.DoubleValue
0.000

@<SCITEGIC>MOL_PROPERTY
Tether
SciTegic.value.DoubleValue
0.000

@<TRIPOS>MOLECULE
guest-s11_confgen4.mol2 : confsearch ligand conformer 881
          20          19           1
SMALL
USER_CHARGES
 
@<TRIPOS>ATOM
       1    N1      19.233561   21.550216   20.559764 N.4        1 MOL1        -0.5919
       2    H1      18.363127   21.136007   20.211678 H          1 MOL1         0.3682
       3    H2      19.067790   22.558200   20.649703 H          1 MOL1         0.3682
       4    H3      19.938998   21.429570   19.826150 H          1 MOL1         0.3682
       5    C1      19.669938   20.931969   21.872712 C.3        1 MOL1         0.0252
       6    H4      18.888066   21.123933   22.612539 H          1 MOL1         0.0971
       7    H5      20.582218   21.439364   22.197998 H          1 MOL1         0.0971
       8    C2      19.927308   19.417719   21.772347 C.3        1 MOL1        -0.1369
       9    H6      19.013356   18.914115   21.430084 H          1 MOL1         0.0997
      10    H7      20.701676   19.228443   21.016968 H          1 MOL1         0.0997
      11    C3      20.369366   18.827553   23.129925 C.3        1 MOL1        -0.1329
      12    H8      19.594695   19.023318   23.884479 H          1 MOL1         0.0997
      13    H9      21.281040   19.337205   23.471827 H          1 MOL1         0.0997
      14    C4      20.630626   17.307223   23.041172 C.3        1 MOL1        -0.1305
      15    H10     19.720430   16.793237   22.701452 H          1 MOL1         0.0997
      16    H11     21.406598   17.107075   22.288938 H          1 MOL1         0.0997
      17    C5      21.071918   16.721991   24.399754 C.3        1 MOL1        -0.2320
      18    H12     20.300619   16.876242   25.165600 H          1 MOL1         0.1008
      19    H13     21.252442   15.642387   24.316622 H          1 MOL1         0.1008
      20    H14     22.000020   17.192421   24.749805 H          1 MOL1         0.1008
@<TRIPOS>BOND
    1     1     2    1
    2     1     3    1
    3     1     4    1
    4     1     5    1
    5     5     6    1
    6     5     7    1
    7     5     8    1
    8     8     9    1
    9     8    10    1
   10     8    11    1
   11    11    12    1
   12    11    13    1
   13    11    14    1
   14    14    15    1
   15    14    16    1
   16    14    17    1
   17    17    18    1
   18    17    19    1
   19    17    20    1
@<TRIPOS>SUBSTRUCTURE
       1 MOL1            1 RESIDUE      1      MOL     
@<SCITEGIC>MOL_PROPERTY
VConf Rank
SciTegic.value.IntegerValue
881

@<SCITEGIC>MOL_PROPERTY
Conf_Id
SciTegic.value.IntegerValue
72

@<SCITEGIC>MOL_PROPERTY
Delta U+W
SciTegic.value.DoubleValue
0.000

@<SCITEGIC>MOL_PROPERTY
U+W
SciTegic.value.DoubleValue
-11.778

@<SCITEGIC>MOL_PROPERTY
Grad RMS
SciTegic.value.DoubleValue
0.000000

@<SCITEGIC>MOL_PROPERTY
U
SciTegic.value.DoubleValue
45.772

@<SCITEGIC>MOL_PROPERTY
W
SciTegic.value.DoubleValue
-57.550

@<SCITEGIC>MOL_PROPERTY
W(PB)
SciTegic.value.DoubleValue
-59.511

@<SCITEGIC>MOL_PROPERTY
W(SA)
SciTegic.value.DoubleValue
1.961

@<SCITEGIC>MOL_PROPERTY
Valence
SciTegic.value.DoubleValue
1.299

@<SCITEGIC>MOL_PROPERTY
Coulomb
SciTegic.value.DoubleValue
44.177

@<SCITEGIC>MOL_PROPERTY
VdW
SciTegic.value.DoubleValue
0.297

@<SCITEGIC>MOL_PROPERTY
VdW6
SciTegic.value.DoubleValue
-3.490

@<SCITEGIC>MOL_PROPERTY
VdW12
SciTegic.value.DoubleValue
3.786

@<SCITEGIC>MOL_PROPERTY
Bond
SciTegic.value.DoubleValue
0.096

@<SCITEGIC>MOL_PROPERTY
Angle
SciTegic.value.DoubleValue
0.381

@<SCITEGIC>MOL_PROPERTY
Pdih
SciTegic.value.DoubleValue
0.822

@<SCITEGIC>MOL_PROPERTY
Idih
SciTegic.value.DoubleValue
0.000

@<SCITEGIC>MOL_PROPERTY
Tether
SciTegic.value.DoubleValue
0.000

@<TRIPOS>MOLECULE
guest-s11_confgen4.mol2 : confsearch ligand conformer 882
          20          19           1
SMALL
USER_CHARGES
 
@<TRIPOS>ATOM
       1    N1      19.318506   21.387402   24.362797 N.4        1 MOL1        -0.5919
       2    H1      18.545581   20.827821   24.736686 H          1 MOL1         0.3682
       3    H2      20.102356   21.293251   25.016309 H          1 MOL1         0.3682
       4    H3      19.019343   22.367669   24.396858 H          1 MOL1         0.3682
       5    C1      19.697783   20.963034   22.958292 C.3        1 MOL1         0.0252
       6    H4      20.502195   21.618426   22.613505 H          1 MOL1         0.0971
       7    H5      18.828894   21.117362   22.312752 H          1 MOL1         0.0971
       8    C2      20.152785   19.495135   22.871621 C.3        1 MOL1        -0.1369
       9    H6      21.015398   19.340917   23.533382 H          1 MOL1         0.0997
      10    H7      19.345053   18.848182   23.236432 H          1 MOL1         0.0997
      11    C3      20.531762   19.106824   21.422925 C.3        1 MOL1        -0.1329
      12    H8      21.286366   19.812907   21.049078 H          1 MOL1         0.0997
      13    H9      19.655567   19.217002   20.768913 H          1 MOL1         0.0997
      14    C4      21.095416   17.670605   21.295502 C.3        1 MOL1        -0.1305
      15    H10     21.434506   17.515305   20.261656 H          1 MOL1         0.0997
      16    H11     21.986369   17.563092   21.929947 H          1 MOL1         0.0997
      17    C5      20.067480   16.572717   21.652602 C.3        1 MOL1        -0.2320
      18    H12     19.154852   16.675153   21.051244 H          1 MOL1         0.1008
      19    H13     20.486388   15.576755   21.458880 H          1 MOL1         0.1008
      20    H14     19.787429   16.611334   22.712556 H          1 MOL1         0.1008
@<TRIPOS>BOND
    1     1     2    1
    2     1     3    1
    3     1     4    1
    4     1     5    1
    5     5     6    1
    6     5     7    1
    7     5     8    1
    8     8     9    1
    9     8    10    1
   10     8    11    1
   11    11    12    1
   12    11    13    1
   13    11    14    1
   14    14    15    1
   15    14    16    1
   16    14    17    1
   17    17    18    1
   18    17    19    1
   19    17    20    1
@<TRIPOS>SUBSTRUCTURE
       1 MOL1            1 RESIDUE      1      MOL     
@<SCITEGIC>MOL_PROPERTY
VConf Rank
SciTegic.value.IntegerValue
882

@<SCITEGIC>MOL_PROPERTY
Conf_Id
SciTegic.value.IntegerValue
42

@<SCITEGIC>MOL_PROPERTY
Delta U+W
SciTegic.value.DoubleValue
0.508

@<SCITEGIC>MOL_PROPERTY
U+W
SciTegic.value.DoubleValue
-11.270

@<SCITEGIC>MOL_PROPERTY
Grad RMS
SciTegic.value.DoubleValue
0.000000

@<SCITEGIC>MOL_PROPERTY
U
SciTegic.value.DoubleValue
46.486

@<SCITEGIC>MOL_PROPERTY
W
SciTegic.value.DoubleValue
-57.756

@<SCITEGIC>MOL_PROPERTY
W(PB)
SciTegic.value.DoubleValue
-59.705

@<SCITEGIC>MOL_PROPERTY
W(SA)
SciTegic.value.DoubleValue
1.949

@<SCITEGIC>MOL_PROPERTY
Valence
SciTegic.value.DoubleValue
1.806

@<SCITEGIC>MOL_PROPERTY
Coulomb
SciTegic.value.DoubleValue
44.248

@<SCITEGIC>MOL_PROPERTY
VdW
SciTegic.value.DoubleValue
0.433

@<SCITEGIC>MOL_PROPERTY
VdW6
SciTegic.value.DoubleValue
-4.089

@<SCITEGIC>MOL_PROPERTY
VdW12
SciTegic.value.DoubleValue
4.522

@<SCITEGIC>MOL_PROPERTY
Bond
SciTegic.value.DoubleValue
0.131

@<SCITEGIC>MOL_PROPERTY
Angle
SciTegic.value.DoubleValue
0.628

@<SCITEGIC>MOL_PROPERTY
Pdih
SciTegic.value.DoubleValue
1.047

@<SCITEGIC>MOL_PROPERTY
Idih
SciTegic.value.DoubleValue
0.000

@<SCITEGIC>MOL_PROPERTY
Tether
SciTegic.value.DoubleValue
0.000

@<TRIPOS>MOLECULE
guest-s11_confgen4.mol2 : confsearch ligand conformer 883
          20          19           1
SMALL
USER_CHARGES
 
@<TRIPOS>ATOM
       1    N1      18.989490   17.586153   24.827170 N.4        1 MOL1        -0.5919
       2    H1      18.974492   16.651289   24.407446 H          1 MOL1         0.3682
       3    H2      19.868552   17.668776   25.347513 H          1 MOL1         0.3682
       4    H3      18.231738   17.614105   25.517540 H          1 MOL1         0.3682
       5    C1      18.842717   18.677175   23.785675 C.3        1 MOL1         0.0252
       6    H4      18.836667   19.639957   24.303864 H          1 MOL1         0.0971
       7    H5      17.875030   18.546069   23.293855 H          1 MOL1         0.0971
       8    C2      19.965016   18.663344   22.732336 C.3        1 MOL1        -0.1369
       9    H6      20.931919   18.777650   23.238399 H          1 MOL1         0.0997
      10    H7      19.977678   17.689278   22.225537 H          1 MOL1         0.0997
      11    C3      19.774002   19.790321   21.689949 C.3        1 MOL1        -0.1329
      12    H8      19.807525   20.767696   22.191150 H          1 MOL1         0.0997
      13    H9      18.770896   19.703897   21.249435 H          1 MOL1         0.0997
      14    C4      20.818000   19.758552   20.547265 C.3        1 MOL1        -0.1305
      15    H10     20.771431   18.791181   20.027743 H          1 MOL1         0.0997
      16    H11     20.548503   20.520179   19.802125 H          1 MOL1         0.0997
      17    C5      22.263560   20.021498   21.027629 C.3        1 MOL1        -0.2320
      18    H12     22.623286   19.218998   21.683382 H          1 MOL1         0.1008
      19    H13     22.948273   20.078898   20.171577 H          1 MOL1         0.1008
      20    H14     22.331564   20.970398   21.575331 H          1 MOL1         0.1008
@<TRIPOS>BOND
    1     1     2    1
    2     1     3    1
    3     1     4    1
    4     1     5    1
    5     5     6    1
    6     5     7    1
    7     5     8    1
    8     8     9    1
    9     8    10    1
   10     8    11    1
   11    11    12    1
   12    11    13    1
   13    11    14    1
   14    14    15    1
   15    14    16    1
   16    14    17    1
   17    17    18    1
   18    17    19    1
   19    17    20    1
@<TRIPOS>SUBSTRUCTURE
       1 MOL1            1 RESIDUE      1      MOL     
@<SCITEGIC>MOL_PROPERTY
VConf Rank
SciTegic.value.IntegerValue
883

@<SCITEGIC>MOL_PROPERTY
Conf_Id
SciTegic.value.IntegerValue
41

@<SCITEGIC>MOL_PROPERTY
Delta U+W
SciTegic.value.DoubleValue
0.515

@<SCITEGIC>MOL_PROPERTY
U+W
SciTegic.value.DoubleValue
-11.263

@<SCITEGIC>MOL_PROPERTY
Grad RMS
SciTegic.value.DoubleValue
0.000000

@<SCITEGIC>MOL_PROPERTY
U
SciTegic.value.DoubleValue
46.486

@<SCITEGIC>MOL_PROPERTY
W
SciTegic.value.DoubleValue
-57.749

@<SCITEGIC>MOL_PROPERTY
W(PB)
SciTegic.value.DoubleValue
-59.685

@<SCITEGIC>MOL_PROPERTY
W(SA)
SciTegic.value.DoubleValue
1.936

@<SCITEGIC>MOL_PROPERTY
Valence
SciTegic.value.DoubleValue
1.806

@<SCITEGIC>MOL_PROPERTY
Coulomb
SciTegic.value.DoubleValue
44.248

@<SCITEGIC>MOL_PROPERTY
VdW
SciTegic.value.DoubleValue
0.433

@<SCITEGIC>MOL_PROPERTY
VdW6
SciTegic.value.DoubleValue
-4.089

@<SCITEGIC>MOL_PROPERTY
VdW12
SciTegic.value.DoubleValue
4.522

@<SCITEGIC>MOL_PROPERTY
Bond
SciTegic.value.DoubleValue
0.131

@<SCITEGIC>MOL_PROPERTY
Angle
SciTegic.value.DoubleValue
0.628

@<SCITEGIC>MOL_PROPERTY
Pdih
SciTegic.value.DoubleValue
1.047

@<SCITEGIC>MOL_PROPERTY
Idih
SciTegic.value.DoubleValue
0.000

@<SCITEGIC>MOL_PROPERTY
Tether
SciTegic.value.DoubleValue
0.000

@<TRIPOS>MOLECULE
guest-s11_confgen4.mol2 : confsearch ligand conformer 884
          20          19           1
SMALL
USER_CHARGES
 
@<TRIPOS>ATOM
       1    N1      19.225474   18.387468   19.961959 N.4        1 MOL1        -0.5919
       2    H1      19.354560   18.268048   18.951723 H          1 MOL1         0.3682
       3    H2      19.436485   17.485140   20.398100 H          1 MOL1         0.3682
       4    H3      18.229162   18.572255   20.114962 H          1 MOL1         0.3682
       5    C1      20.097373   19.499352   20.513021 C.3        1 MOL1         0.0252
       6    H4      19.846107   20.415426   19.971475 H          1 MOL1         0.0971
       7    H5      21.140352   19.252364   20.297072 H          1 MOL1         0.0971
       8    C2      19.923433   19.738194   22.025823 C.3        1 MOL1        -0.1369
       9    H6      20.502449   20.629914   22.296349 H          1 MOL1         0.0997
      10    H7      18.871842   19.968812   22.241832 H          1 MOL1         0.0997
      11    C3      20.389657   18.532103   22.879694 C.3        1 MOL1        -0.1329
      12    H8      21.448599   18.321639   22.675209 H          1 MOL1         0.0997
      13    H9      19.832787   17.634681   22.579463 H          1 MOL1         0.0997
      14    C4      20.188332   18.739085   24.400749 C.3        1 MOL1        -0.1305
      15    H10     19.128035   18.936464   24.612118 H          1 MOL1         0.0997
      16    H11     20.434978   17.801906   24.919209 H          1 MOL1         0.0997
      17    C5      21.056287   19.875096   24.988880 C.3        1 MOL1        -0.2320
      18    H12     20.762099   20.854898   24.593014 H          1 MOL1         0.1008
      19    H13     20.947444   19.915425   26.080427 H          1 MOL1         0.1008
      20    H14     22.119077   19.717480   24.763851 H          1 MOL1         0.1008
@<TRIPOS>BOND
    1     1     2    1
    2     1     3    1
    3     1     4    1
    4     1     5    1
    5     5     6    1
    6     5     7    1
    7     5     8    1
    8     8     9    1
    9     8    10    1
   10     8    11    1
   11    11    12    1
   12    11    13    1
   13    11    14    1
   14    14    15    1
   15    14    16    1
   16    14    17    1
   17    17    18    1
   18    17    19    1
   19    17    20    1
@<TRIPOS>SUBSTRUCTURE
       1 MOL1            1 RESIDUE      1      MOL     
@<SCITEGIC>MOL_PROPERTY
VConf Rank
SciTegic.value.IntegerValue
884

@<SCITEGIC>MOL_PROPERTY
Conf_Id
SciTegic.value.IntegerValue
33

@<SCITEGIC>MOL_PROPERTY
Delta U+W
SciTegic.value.DoubleValue
0.703

@<SCITEGIC>MOL_PROPERTY
U+W
SciTegic.value.DoubleValue
-11.075

@<SCITEGIC>MOL_PROPERTY
Grad RMS
SciTegic.value.DoubleValue
0.000000

@<SCITEGIC>MOL_PROPERTY
U
SciTegic.value.DoubleValue
47.080

@<SCITEGIC>MOL_PROPERTY
W
SciTegic.value.DoubleValue
-58.154

@<SCITEGIC>MOL_PROPERTY
W(PB)
SciTegic.value.DoubleValue
-60.053

@<SCITEGIC>MOL_PROPERTY
W(SA)
SciTegic.value.DoubleValue
1.899

@<SCITEGIC>MOL_PROPERTY
Valence
SciTegic.value.DoubleValue
1.943

@<SCITEGIC>MOL_PROPERTY
Coulomb
SciTegic.value.DoubleValue
44.572

@<SCITEGIC>MOL_PROPERTY
VdW
SciTegic.value.DoubleValue
0.565

@<SCITEGIC>MOL_PROPERTY
VdW6
SciTegic.value.DoubleValue
-4.575

@<SCITEGIC>MOL_PROPERTY
VdW12
SciTegic.value.DoubleValue
5.139

@<SCITEGIC>MOL_PROPERTY
Bond
SciTegic.value.DoubleValue
0.158

@<SCITEGIC>MOL_PROPERTY
Angle
SciTegic.value.DoubleValue
0.700

@<SCITEGIC>MOL_PROPERTY
Pdih
SciTegic.value.DoubleValue
1.085

@<SCITEGIC>MOL_PROPERTY
Idih
SciTegic.value.DoubleValue
0.000

@<SCITEGIC>MOL_PROPERTY
Tether
SciTegic.value.DoubleValue
0.000

@<TRIPOS>MOLECULE
guest-s11_confgen4.mol2 : confsearch ligand conformer 885
          20          19           1
SMALL
USER_CHARGES
 
@<TRIPOS>ATOM
       1    N1      17.794750   19.451796   21.045633 N.4        1 MOL1        -0.5919
       2    H1      17.172114   19.219528   20.264687 H          1 MOL1         0.3682
       3    H2      17.198023   19.749946   21.823589 H          1 MOL1         0.3682
       4    H3      18.344515   20.266091   20.756461 H          1 MOL1         0.3682
       5    C1      18.678408   18.280112   21.428343 C.3        1 MOL1         0.0252
       6    H4      19.268577   17.998787   20.551987 H          1 MOL1         0.0971
       7    H5      18.023946   17.441293   21.680659 H          1 MOL1         0.0971
       8    C2      19.618042   18.567922   22.615825 C.3        1 MOL1        -0.1369
       9    H6      19.023648   18.866984   23.489295 H          1 MOL1         0.0997
      10    H7      20.120952   17.630560   22.884236 H          1 MOL1         0.0997
      11    C3      20.674049   19.655184   22.293603 C.3        1 MOL1        -0.1329
      12    H8      20.165701   20.580016   21.990492 H          1 MOL1         0.0997
      13    H9      21.279592   19.338932   21.432922 H          1 MOL1         0.0997
      14    C4      21.604135   19.984072   23.486812 C.3        1 MOL1        -0.1305
      15    H10     22.240956   20.836687   23.212133 H          1 MOL1         0.0997
      16    H11     21.003926   20.314103   24.346286 H          1 MOL1         0.0997
      17    C5      22.509272   18.803430   23.907021 C.3        1 MOL1        -0.2320
      18    H12     23.097300   18.434086   23.056836 H          1 MOL1         0.1008
      19    H13     23.212365   19.118241   24.689007 H          1 MOL1         0.1008
      20    H14     21.923180   17.967966   24.309224 H          1 MOL1         0.1008
@<TRIPOS>BOND
    1     1     2    1
    2     1     3    1
    3     1     4    1
    4     1     5    1
    5     5     6    1
    6     5     7    1
    7     5     8    1
    8     8     9    1
    9     8    10    1
   10     8    11    1
   11    11    12    1
   12    11    13    1
   13    11    14    1
   14    14    15    1
   15    14    16    1
   16    14    17    1
   17    17    18    1
   18    17    19    1
   19    17    20    1
@<TRIPOS>SUBSTRUCTURE
       1 MOL1            1 RESIDUE      1      MOL     
@<SCITEGIC>MOL_PROPERTY
VConf Rank
SciTegic.value.IntegerValue
885

@<SCITEGIC>MOL_PROPERTY
Conf_Id
SciTegic.value.IntegerValue
24

@<SCITEGIC>MOL_PROPERTY
Delta U+W
SciTegic.value.DoubleValue
0.847

@<SCITEGIC>MOL_PROPERTY
U+W
SciTegic.value.DoubleValue
-10.931

@<SCITEGIC>MOL_PROPERTY
Grad RMS
SciTegic.value.DoubleValue
0.000000

@<SCITEGIC>MOL_PROPERTY
U
SciTegic.value.DoubleValue
47.080

@<SCITEGIC>MOL_PROPERTY
W
SciTegic.value.DoubleValue
-58.011

@<SCITEGIC>MOL_PROPERTY
W(PB)
SciTegic.value.DoubleValue
-59.914

@<SCITEGIC>MOL_PROPERTY
W(SA)
SciTegic.value.DoubleValue
1.903

@<SCITEGIC>MOL_PROPERTY
Valence
SciTegic.value.DoubleValue
1.943

@<SCITEGIC>MOL_PROPERTY
Coulomb
SciTegic.value.DoubleValue
44.572

@<SCITEGIC>MOL_PROPERTY
VdW
SciTegic.value.DoubleValue
0.565

@<SCITEGIC>MOL_PROPERTY
VdW6
SciTegic.value.DoubleValue
-4.575

@<SCITEGIC>MOL_PROPERTY
VdW12
SciTegic.value.DoubleValue
5.140

@<SCITEGIC>MOL_PROPERTY
Bond
SciTegic.value.DoubleValue
0.158

@<SCITEGIC>MOL_PROPERTY
Angle
SciTegic.value.DoubleValue
0.700

@<SCITEGIC>MOL_PROPERTY
Pdih
SciTegic.value.DoubleValue
1.085

@<SCITEGIC>MOL_PROPERTY
Idih
SciTegic.value.DoubleValue
0.000

@<SCITEGIC>MOL_PROPERTY
Tether
SciTegic.value.DoubleValue
0.000

@<TRIPOS>MOLECULE
guest-s11_confgen4.mol2 : confsearch ligand conformer 886
          20          19           1
SMALL
USER_CHARGES
 
@<TRIPOS>ATOM
       1    N1      20.142187   17.046279   20.797975 N.4        1 MOL1        -0.5919
       2    H1      20.679331   16.941155   19.930845 H          1 MOL1         0.3682
       3    H2      20.600339   16.461887   21.504236 H          1 MOL1         0.3682
       4    H3      19.217091   16.640493   20.625214 H          1 MOL1         0.3682
       5    C1      20.052604   18.495145   21.232820 C.3        1 MOL1         0.0252
       6    H4      19.582809   19.062225   20.424680 H          1 MOL1         0.0971
       7    H5      21.070999   18.868651   21.368283 H          1 MOL1         0.0971
       8    C2      19.251714   18.688041   22.534354 C.3        1 MOL1        -0.1369
       9    H6      18.244225   18.272217   22.400875 H          1 MOL1         0.0997
      10    H7      19.717255   18.111886   23.344152 H          1 MOL1         0.0997
      11    C3      19.127146   20.176172   22.946596 C.3        1 MOL1        -0.1329
      12    H8      18.537228   20.241483   23.871255 H          1 MOL1         0.0997
      13    H9      18.548337   20.711012   22.180816 H          1 MOL1         0.0997
      14    C4      20.477199   20.909408   23.153834 C.3        1 MOL1        -0.1305
      15    H10     21.037452   20.947348   22.209665 H          1 MOL1         0.0997
      16    H11     20.270277   21.954649   23.423158 H          1 MOL1         0.0997
      17    C5      21.357460   20.276546   24.255485 C.3        1 MOL1        -0.2320
      18    H12     22.255220   20.884486   24.426770 H          1 MOL1         0.1008
      19    H13     20.812332   20.208104   25.205815 H          1 MOL1         0.1008
      20    H14     21.690075   19.269104   23.976087 H          1 MOL1         0.1008
@<TRIPOS>BOND
    1     1     2    1
    2     1     3    1
    3     1     4    1
    4     1     5    1
    5     5     6    1
    6     5     7    1
    7     5     8    1
    8     8     9    1
    9     8    10    1
   10     8    11    1
   11    11    12    1
   12    11    13    1
   13    11    14    1
   14    14    15    1
   15    14    16    1
   16    14    17    1
   17    17    18    1
   18    17    19    1
   19    17    20    1
@<TRIPOS>SUBSTRUCTURE
       1 MOL1            1 RESIDUE      1      MOL     
@<SCITEGIC>MOL_PROPERTY
VConf Rank
SciTegic.value.IntegerValue
886

@<SCITEGIC>MOL_PROPERTY
Conf_Id
SciTegic.value.IntegerValue
64

@<SCITEGIC>MOL_PROPERTY
Delta U+W
SciTegic.value.DoubleValue
0.707

@<SCITEGIC>MOL_PROPERTY
U+W
SciTegic.value.DoubleValue
-11.070

@<SCITEGIC>MOL_PROPERTY
Grad RMS
SciTegic.value.DoubleValue
0.000000

@<SCITEGIC>MOL_PROPERTY
U
SciTegic.value.DoubleValue
47.077

@<SCITEGIC>MOL_PROPERTY
W
SciTegic.value.DoubleValue
-58.148

@<SCITEGIC>MOL_PROPERTY
W(PB)
SciTegic.value.DoubleValue
-60.054

@<SCITEGIC>MOL_PROPERTY
W(SA)
SciTegic.value.DoubleValue
1.906

@<SCITEGIC>MOL_PROPERTY
Valence
SciTegic.value.DoubleValue
2.039

@<SCITEGIC>MOL_PROPERTY
Coulomb
SciTegic.value.DoubleValue
44.655

@<SCITEGIC>MOL_PROPERTY
VdW
SciTegic.value.DoubleValue
0.383

@<SCITEGIC>MOL_PROPERTY
VdW6
SciTegic.value.DoubleValue
-4.912

@<SCITEGIC>MOL_PROPERTY
VdW12
SciTegic.value.DoubleValue
5.295

@<SCITEGIC>MOL_PROPERTY
Bond
SciTegic.value.DoubleValue
0.159

@<SCITEGIC>MOL_PROPERTY
Angle
SciTegic.value.DoubleValue
0.856

@<SCITEGIC>MOL_PROPERTY
Pdih
SciTegic.value.DoubleValue
1.024

@<SCITEGIC>MOL_PROPERTY
Idih
SciTegic.value.DoubleValue
0.000

@<SCITEGIC>MOL_PROPERTY
Tether
SciTegic.value.DoubleValue
0.000

@<TRIPOS>MOLECULE
guest-s11_confgen4.mol2 : confsearch ligand conformer 887
          20          19           1
SMALL
USER_CHARGES
 
@<TRIPOS>ATOM
       1    N1      20.789039   19.200810   25.169340 N.4        1 MOL1        -0.5919
       2    H1      21.504237   19.894156   25.410322 H          1 MOL1         0.3682
       3    H2      19.878351   19.623696   25.374369 H          1 MOL1         0.3682
       4    H3      20.905530   18.415835   25.818750 H          1 MOL1         0.3682
       5    C1      20.895122   18.756830   23.724364 C.3        1 MOL1         0.0252
       6    H4      20.126233   17.999993   23.548318 H          1 MOL1         0.0971
       7    H5      21.874487   18.291281   23.584767 H          1 MOL1         0.0971
       8    C2      20.723922   19.913524   22.721683 C.3        1 MOL1        -0.1369
       9    H6      19.744783   20.387437   22.867112 H          1 MOL1         0.0997
      10    H7      21.474332   20.686578   22.933889 H          1 MOL1         0.0997
      11    C3      20.878745   19.458189   21.249034 C.3        1 MOL1        -0.1329
      12    H8      21.906539   19.102563   21.091987 H          1 MOL1         0.0997
      13    H9      20.757369   20.330353   20.591873 H          1 MOL1         0.0997
      14    C4      19.893248   18.347290   20.804147 C.3        1 MOL1        -0.1305
      15    H10     20.104214   18.091050   19.756427 H          1 MOL1         0.0997
      16    H11     20.071278   17.428943   21.380097 H          1 MOL1         0.0997
      17    C5      18.408227   18.758020   20.926706 C.3        1 MOL1        -0.2320
      18    H12     18.208441   19.686201   20.375759 H          1 MOL1         0.1008
      19    H13     17.757762   17.976177   20.513762 H          1 MOL1         0.1008
      20    H14     18.117358   18.909707   21.973616 H          1 MOL1         0.1008
@<TRIPOS>BOND
    1     1     2    1
    2     1     3    1
    3     1     4    1
    4     1     5    1
    5     5     6    1
    6     5     7    1
    7     5     8    1
    8     8     9    1
    9     8    10    1
   10     8    11    1
   11    11    12    1
   12    11    13    1
   13    11    14    1
   14    14    15    1
   15    14    16    1
   16    14    17    1
   17    17    18    1
   18    17    19    1
   19    17    20    1
@<TRIPOS>SUBSTRUCTURE
       1 MOL1            1 RESIDUE      1      MOL     
@<SCITEGIC>MOL_PROPERTY
VConf Rank
SciTegic.value.IntegerValue
887

@<SCITEGIC>MOL_PROPERTY
Conf_Id
SciTegic.value.IntegerValue
22

@<SCITEGIC>MOL_PROPERTY
Delta U+W
SciTegic.value.DoubleValue
0.731

@<SCITEGIC>MOL_PROPERTY
U+W
SciTegic.value.DoubleValue
-11.047

@<SCITEGIC>MOL_PROPERTY
Grad RMS
SciTegic.value.DoubleValue
0.000000

@<SCITEGIC>MOL_PROPERTY
U
SciTegic.value.DoubleValue
47.078

@<SCITEGIC>MOL_PROPERTY
W
SciTegic.value.DoubleValue
-58.125

@<SCITEGIC>MOL_PROPERTY
W(PB)
SciTegic.value.DoubleValue
-60.031

@<SCITEGIC>MOL_PROPERTY
W(SA)
SciTegic.value.DoubleValue
1.906

@<SCITEGIC>MOL_PROPERTY
Valence
SciTegic.value.DoubleValue
2.039

@<SCITEGIC>MOL_PROPERTY
Coulomb
SciTegic.value.DoubleValue
44.655

@<SCITEGIC>MOL_PROPERTY
VdW
SciTegic.value.DoubleValue
0.383

@<SCITEGIC>MOL_PROPERTY
VdW6
SciTegic.value.DoubleValue
-4.913

@<SCITEGIC>MOL_PROPERTY
VdW12
SciTegic.value.DoubleValue
5.296

@<SCITEGIC>MOL_PROPERTY
Bond
SciTegic.value.DoubleValue
0.159

@<SCITEGIC>MOL_PROPERTY
Angle
SciTegic.value.DoubleValue
0.856

@<SCITEGIC>MOL_PROPERTY
Pdih
SciTegic.value.DoubleValue
1.024

@<SCITEGIC>MOL_PROPERTY
Idih
SciTegic.value.DoubleValue
0.000

@<SCITEGIC>MOL_PROPERTY
Tether
SciTegic.value.DoubleValue
0.000

@<TRIPOS>MOLECULE
guest-s11_confgen4.mol2 : confsearch ligand conformer 888
          20          19           1
SMALL
USER_CHARGES
 
@<TRIPOS>ATOM
       1    N1      22.917330   19.264294   22.605858 N.4        1 MOL1        -0.5919
       2    H1      23.122573   20.207601   22.261791 H          1 MOL1         0.3682
       3    H2      23.280640   19.207053   23.562435 H          1 MOL1         0.3682
       4    H3      23.470869   18.613783   22.038474 H          1 MOL1         0.3682
       5    C1      21.436618   18.947942   22.542432 C.3        1 MOL1         0.0252
       6    H4      21.294061   17.923286   22.896200 H          1 MOL1         0.0971
       7    H5      21.131076   18.999906   21.494954 H          1 MOL1         0.0971
       8    C2      20.576694   19.910959   23.380168 C.3        1 MOL1        -0.1369
       9    H6      20.972510   19.937804   24.404147 H          1 MOL1         0.0997
      10    H7      20.676150   20.929739   22.982698 H          1 MOL1         0.0997
      11    C3      19.077987   19.521416   23.443774 C.3        1 MOL1        -0.1329
      12    H8      18.585202   20.218571   24.135647 H          1 MOL1         0.0997
      13    H9      18.964060   18.525946   23.894784 H          1 MOL1         0.0997
      14    C4      18.328885   19.583469   22.087240 C.3        1 MOL1        -0.1305
      15    H10     17.269859   19.798698   22.287847 H          1 MOL1         0.0997
      16    H11     18.698782   20.425399   21.485517 H          1 MOL1         0.0997
      17    C5      18.397843   18.270475   21.272300 C.3        1 MOL1        -0.2320
      18    H12     19.417685   18.032452   20.952703 H          1 MOL1         0.1008
      19    H13     18.017713   17.423257   21.857729 H          1 MOL1         0.1008
      20    H14     17.782069   18.350560   20.367097 H          1 MOL1         0.1008
@<TRIPOS>BOND
    1     1     2    1
    2     1     3    1
    3     1     4    1
    4     1     5    1
    5     5     6    1
    6     5     7    1
    7     5     8    1
    8     8     9    1
    9     8    10    1
   10     8    11    1
   11    11    12    1
   12    11    13    1
   13    11    14    1
   14    14    15    1
   15    14    16    1
   16    14    17    1
   17    17    18    1
   18    17    19    1
   19    17    20    1
@<TRIPOS>SUBSTRUCTURE
       1 MOL1            1 RESIDUE      1      MOL     
@<SCITEGIC>MOL_PROPERTY
VConf Rank
SciTegic.value.IntegerValue
888

@<SCITEGIC>MOL_PROPERTY
Conf_Id
SciTegic.value.IntegerValue
61

@<SCITEGIC>MOL_PROPERTY
Delta U+W
SciTegic.value.DoubleValue
2.669

@<SCITEGIC>MOL_PROPERTY
U+W
SciTegic.value.DoubleValue
-9.108

@<SCITEGIC>MOL_PROPERTY
Grad RMS
SciTegic.value.DoubleValue
0.000000

@<SCITEGIC>MOL_PROPERTY
U
SciTegic.value.DoubleValue
48.916

@<SCITEGIC>MOL_PROPERTY
W
SciTegic.value.DoubleValue
-58.025

@<SCITEGIC>MOL_PROPERTY
W(PB)
SciTegic.value.DoubleValue
-59.935

@<SCITEGIC>MOL_PROPERTY
W(SA)
SciTegic.value.DoubleValue
1.911

@<SCITEGIC>MOL_PROPERTY
Valence
SciTegic.value.DoubleValue
3.785

@<SCITEGIC>MOL_PROPERTY
Coulomb
SciTegic.value.DoubleValue
44.716

@<SCITEGIC>MOL_PROPERTY
VdW
SciTegic.value.DoubleValue
0.415

@<SCITEGIC>MOL_PROPERTY
VdW6
SciTegic.value.DoubleValue
-4.836

@<SCITEGIC>MOL_PROPERTY
VdW12
SciTegic.value.DoubleValue
5.251

@<SCITEGIC>MOL_PROPERTY
Bond
SciTegic.value.DoubleValue
0.175

@<SCITEGIC>MOL_PROPERTY
Angle
SciTegic.value.DoubleValue
1.195

@<SCITEGIC>MOL_PROPERTY
Pdih
SciTegic.value.DoubleValue
2.415

@<SCITEGIC>MOL_PROPERTY
Idih
SciTegic.value.DoubleValue
0.000

@<SCITEGIC>MOL_PROPERTY
Tether
SciTegic.value.DoubleValue
0.000

@<TRIPOS>MOLECULE
guest-s11_confgen4.mol2 : confsearch ligand conformer 889
          20          19           1
SMALL
USER_CHARGES
 
@<TRIPOS>ATOM
       1    N1      22.112602   19.913275   21.644846 N.4        1 MOL1        -0.5919
       2    H1      22.543801   20.501122   20.923636 H          1 MOL1         0.3682
       3    H2      22.877618   19.505787   22.191661 H          1 MOL1         0.3682
       4    H3      21.642073   19.142941   21.162961 H          1 MOL1         0.3682
       5    C1      21.156975   20.704669   22.517225 C.3        1 MOL1         0.0252
       6    H4      20.398154   21.162510   21.876983 H          1 MOL1         0.0971
       7    H5      21.738485   21.507384   22.978803 H          1 MOL1         0.0971
       8    C2      20.475831   19.877541   23.627800 C.3        1 MOL1        -0.1369
       9    H6      21.206301   19.207021   24.099638 H          1 MOL1         0.0997
      10    H7      20.155783   20.574307   24.413903 H          1 MOL1         0.0997
      11    C3      19.229656   19.079577   23.165125 C.3        1 MOL1        -0.1329
      12    H8      18.485085   19.772341   22.749001 H          1 MOL1         0.0997
      13    H9      18.764231   18.628255   24.052350 H          1 MOL1         0.0997
      14    C4      19.528002   17.964101   22.136040 C.3        1 MOL1        -0.1305
      15    H10     19.852769   18.406131   21.185784 H          1 MOL1         0.0997
      16    H11     20.348388   17.329588   22.499770 H          1 MOL1         0.0997
      17    C5      18.284892   17.088079   21.870931 C.3        1 MOL1        -0.2320
      18    H12     18.510400   16.308188   21.132035 H          1 MOL1         0.1008
      19    H13     17.946914   16.592115   22.790177 H          1 MOL1         0.1008
      20    H14     17.453336   17.690097   21.481883 H          1 MOL1         0.1008
@<TRIPOS>BOND
    1     1     2    1
    2     1     3    1
    3     1     4    1
    4     1     5    1
    5     5     6    1
    6     5     7    1
    7     5     8    1
    8     8     9    1
    9     8    10    1
   10     8    11    1
   11    11    12    1
   12    11    13    1
   13    11    14    1
   14    14    15    1
   15    14    16    1
   16    14    17    1
   17    17    18    1
   18    17    19    1
   19    17    20    1
@<TRIPOS>SUBSTRUCTURE
       1 MOL1            1 RESIDUE      1      MOL     
@<SCITEGIC>MOL_PROPERTY
VConf Rank
SciTegic.value.IntegerValue
889

@<SCITEGIC>MOL_PROPERTY
Conf_Id
SciTegic.value.IntegerValue
69

@<SCITEGIC>MOL_PROPERTY
Delta U+W
SciTegic.value.DoubleValue
2.811

@<SCITEGIC>MOL_PROPERTY
U+W
SciTegic.value.DoubleValue
-8.967

@<SCITEGIC>MOL_PROPERTY
Grad RMS
SciTegic.value.DoubleValue
0.000000

@<SCITEGIC>MOL_PROPERTY
U
SciTegic.value.DoubleValue
49.216

@<SCITEGIC>MOL_PROPERTY
W
SciTegic.value.DoubleValue
-58.183

@<SCITEGIC>MOL_PROPERTY
W(PB)
SciTegic.value.DoubleValue
-60.064

@<SCITEGIC>MOL_PROPERTY
W(SA)
SciTegic.value.DoubleValue
1.881

@<SCITEGIC>MOL_PROPERTY
Valence
SciTegic.value.DoubleValue
2.929

@<SCITEGIC>MOL_PROPERTY
Coulomb
SciTegic.value.DoubleValue
46.006

@<SCITEGIC>MOL_PROPERTY
VdW
SciTegic.value.DoubleValue
0.281

@<SCITEGIC>MOL_PROPERTY
VdW6
SciTegic.value.DoubleValue
-4.909

@<SCITEGIC>MOL_PROPERTY
VdW12
SciTegic.value.DoubleValue
5.190

@<SCITEGIC>MOL_PROPERTY
Bond
SciTegic.value.DoubleValue
0.156

@<SCITEGIC>MOL_PROPERTY
Angle
SciTegic.value.DoubleValue
0.974

@<SCITEGIC>MOL_PROPERTY
Pdih
SciTegic.value.DoubleValue
1.799

@<SCITEGIC>MOL_PROPERTY
Idih
SciTegic.value.DoubleValue
0.000

@<SCITEGIC>MOL_PROPERTY
Tether
SciTegic.value.DoubleValue
0.000

@<TRIPOS>MOLECULE
guest-s11_confgen4.mol2 : confsearch ligand conformer 890
          20          19           1
SMALL
USER_CHARGES
 
@<TRIPOS>ATOM
       1    N1      19.539791   20.236284   24.382870 N.4        1 MOL1        -0.5919
       2    H1      19.241357   20.604536   23.476032 H          1 MOL1         0.3682
       3    H2      18.732755   19.758172   24.795673 H          1 MOL1         0.3682
       4    H3      19.745579   21.042441   24.982373 H          1 MOL1         0.3682
       5    C1      20.735693   19.312271   24.254076 C.3        1 MOL1         0.0252
       6    H4      20.990655   18.979611   25.263971 H          1 MOL1         0.0971
       7    H5      21.580196   19.887110   23.864572 H          1 MOL1         0.0971
       8    C2      20.490528   18.074186   23.366091 C.3        1 MOL1        -0.1369
       9    H6      21.217985   17.305091   23.657930 H          1 MOL1         0.0997
      10    H7      19.501053   17.648184   23.578875 H          1 MOL1         0.0997
      11    C3      20.653758   18.328809   21.845467 C.3        1 MOL1        -0.1329
      12    H8      20.572426   17.363489   21.326794 H          1 MOL1         0.0997
      13    H9      21.668254   18.699395   21.643158 H          1 MOL1         0.0997
      14    C4      19.617818   19.307342   21.244123 C.3        1 MOL1        -0.1305
      15    H10     18.602675   19.001666   21.533934 H          1 MOL1         0.0997
      16    H11     19.780888   20.317629   21.639825 H          1 MOL1         0.0997
      17    C5      19.714033   19.361358   19.704369 C.3        1 MOL1        -0.2320
      18    H12     19.517737   18.376510   19.260788 H          1 MOL1         0.1008
      19    H13     18.979609   20.066736   19.294351 H          1 MOL1         0.1008
      20    H14     20.711283   19.688564   19.382344 H          1 MOL1         0.1008
@<TRIPOS>BOND
    1     1     2    1
    2     1     3    1
    3     1     4    1
    4     1     5    1
    5     5     6    1
    6     5     7    1
    7     5     8    1
    8     8     9    1
    9     8    10    1
   10     8    11    1
   11    11    12    1
   12    11    13    1
   13    11    14    1
   14    14    15    1
   15    14    16    1
   16    14    17    1
   17    17    18    1
   18    17    19    1
   19    17    20    1
@<TRIPOS>SUBSTRUCTURE
       1 MOL1            1 RESIDUE      1      MOL     
@<SCITEGIC>MOL_PROPERTY
VConf Rank
SciTegic.value.IntegerValue
890

@<SCITEGIC>MOL_PROPERTY
Conf_Id
SciTegic.value.IntegerValue
26

@<SCITEGIC>MOL_PROPERTY
Delta U+W
SciTegic.value.DoubleValue
2.809

@<SCITEGIC>MOL_PROPERTY
U+W
SciTegic.value.DoubleValue
-8.969

@<SCITEGIC>MOL_PROPERTY
Grad RMS
SciTegic.value.DoubleValue
0.000000

@<SCITEGIC>MOL_PROPERTY
U
SciTegic.value.DoubleValue
49.216

@<SCITEGIC>MOL_PROPERTY
W
SciTegic.value.DoubleValue
-58.185

@<SCITEGIC>MOL_PROPERTY
W(PB)
SciTegic.value.DoubleValue
-60.088

@<SCITEGIC>MOL_PROPERTY
W(SA)
SciTegic.value.DoubleValue
1.903

@<SCITEGIC>MOL_PROPERTY
Valence
SciTegic.value.DoubleValue
2.929

@<SCITEGIC>MOL_PROPERTY
Coulomb
SciTegic.value.DoubleValue
46.006

@<SCITEGIC>MOL_PROPERTY
VdW
SciTegic.value.DoubleValue
0.281

@<SCITEGIC>MOL_PROPERTY
VdW6
SciTegic.value.DoubleValue
-4.909

@<SCITEGIC>MOL_PROPERTY
VdW12
SciTegic.value.DoubleValue
5.190

@<SCITEGIC>MOL_PROPERTY
Bond
SciTegic.value.DoubleValue
0.156

@<SCITEGIC>MOL_PROPERTY
Angle
SciTegic.value.DoubleValue
0.974

@<SCITEGIC>MOL_PROPERTY
Pdih
SciTegic.value.DoubleValue
1.799

@<SCITEGIC>MOL_PROPERTY
Idih
SciTegic.value.DoubleValue
0.000

@<SCITEGIC>MOL_PROPERTY
Tether
SciTegic.value.DoubleValue
0.000

@<TRIPOS>MOLECULE
guest-s11_confgen4.mol2 : confsearch ligand conformer 891
          20          19           1
SMALL
USER_CHARGES
 
@<TRIPOS>ATOM
       1    N1      22.232267   20.305939   22.070670 N.4        1 MOL1        -0.5919
       2    H1      22.442276   19.309132   22.176542 H          1 MOL1         0.3682
       3    H2      22.453630   20.560911   21.103186 H          1 MOL1         0.3682
       4    H3      22.887677   20.816778   22.671329 H          1 MOL1         0.3682
       5    C1      20.789458   20.615452   22.419242 C.3        1 MOL1         0.0252
       6    H4      20.645672   21.694298   22.314713 H          1 MOL1         0.0971
       7    H5      20.629131   20.352224   23.468021 H          1 MOL1         0.0971
       8    C2      19.765787   19.874739   21.535085 C.3        1 MOL1        -0.1369
       9    H6      18.756687   20.213282   21.802735 H          1 MOL1         0.0997
      10    H7      19.913450   20.172061   20.488455 H          1 MOL1         0.0997
      11    C3      19.841919   18.328866   21.642207 C.3        1 MOL1        -0.1329
      12    H8      20.794431   17.981742   21.219794 H          1 MOL1         0.0997
      13    H9      19.058957   17.891572   21.007428 H          1 MOL1         0.0997
      14    C4      19.696677   17.768736   23.080327 C.3        1 MOL1        -0.1305
      15    H10     19.787147   16.674146   23.041099 H          1 MOL1         0.0997
      16    H11     20.526458   18.117319   23.709970 H          1 MOL1         0.0997
      17    C5      18.350776   18.133152   23.747107 C.3        1 MOL1        -0.2320
      18    H12     17.503468   17.809791   23.128666 H          1 MOL1         0.1008
      19    H13     18.260008   17.641149   24.724133 H          1 MOL1         0.1008
      20    H14     18.262997   19.214108   23.912732 H          1 MOL1         0.1008
@<TRIPOS>BOND
    1     1     2    1
    2     1     3    1
    3     1     4    1
    4     1     5    1
    5     5     6    1
    6     5     7    1
    7     5     8    1
    8     8     9    1
    9     8    10    1
   10     8    11    1
   11    11    12    1
   12    11    13    1
   13    11    14    1
   14    14    15    1
   15    14    16    1
   16    14    17    1
   17    17    18    1
   18    17    19    1
   19    17    20    1
@<TRIPOS>SUBSTRUCTURE
       1 MOL1            1 RESIDUE      1      MOL     
@<SCITEGIC>MOL_PROPERTY
VConf Rank
SciTegic.value.IntegerValue
891

@<SCITEGIC>MOL_PROPERTY
Conf_Id
SciTegic.value.IntegerValue
2

@<SCITEGIC>MOL_PROPERTY
Delta U+W
SciTegic.value.DoubleValue
0.994

@<SCITEGIC>MOL_PROPERTY
U+W
SciTegic.value.DoubleValue
-10.784

@<SCITEGIC>MOL_PROPERTY
Grad RMS
SciTegic.value.DoubleValue
0.000000

@<SCITEGIC>MOL_PROPERTY
U
SciTegic.value.DoubleValue
47.562

@<SCITEGIC>MOL_PROPERTY
W
SciTegic.value.DoubleValue
-58.346

@<SCITEGIC>MOL_PROPERTY
W(PB)
SciTegic.value.DoubleValue
-60.221

@<SCITEGIC>MOL_PROPERTY
W(SA)
SciTegic.value.DoubleValue
1.875

@<SCITEGIC>MOL_PROPERTY
Valence
SciTegic.value.DoubleValue
2.149

@<SCITEGIC>MOL_PROPERTY
Coulomb
SciTegic.value.DoubleValue
45.034

@<SCITEGIC>MOL_PROPERTY
VdW
SciTegic.value.DoubleValue
0.378

@<SCITEGIC>MOL_PROPERTY
VdW6
SciTegic.value.DoubleValue
-5.599

@<SCITEGIC>MOL_PROPERTY
VdW12
SciTegic.value.DoubleValue
5.977

@<SCITEGIC>MOL_PROPERTY
Bond
SciTegic.value.DoubleValue
0.185

@<SCITEGIC>MOL_PROPERTY
Angle
SciTegic.value.DoubleValue
0.935

@<SCITEGIC>MOL_PROPERTY
Pdih
SciTegic.value.DoubleValue
1.028

@<SCITEGIC>MOL_PROPERTY
Idih
SciTegic.value.DoubleValue
0.000

@<SCITEGIC>MOL_PROPERTY
Tether
SciTegic.value.DoubleValue
0.000

@<TRIPOS>MOLECULE
guest-s11_confgen4.mol2 : confsearch ligand conformer 892
          20          19           1
SMALL
USER_CHARGES
 
@<TRIPOS>ATOM
       1    N1      22.160718   17.737673   22.767902 N.4        1 MOL1        -0.5919
       2    H1      22.079749   16.732959   22.583422 H          1 MOL1         0.3682
       3    H2      22.249668   18.205625   21.861233 H          1 MOL1         0.3682
       4    H3      23.044971   17.879076   23.267312 H          1 MOL1         0.3682
       5    C1      20.977305   18.263184   23.556806 C.3        1 MOL1         0.0252
       6    H4      21.141172   19.327043   23.747289 H          1 MOL1         0.0971
       7    H5      20.962153   17.744848   24.519409 H          1 MOL1         0.0971
       8    C2      19.622416   18.064831   22.847426 C.3        1 MOL1        -0.1369
       9    H6      19.452300   16.991336   22.691522 H          1 MOL1         0.0997
      10    H7      18.820123   18.400757   23.516764 H          1 MOL1         0.0997
      11    C3      19.508859   18.802494   21.487297 C.3        1 MOL1        -0.1329
      12    H8      18.504766   18.631581   21.075245 H          1 MOL1         0.0997
      13    H9      20.205277   18.349553   20.768929 H          1 MOL1         0.0997
      14    C4      19.775040   20.328320   21.550842 C.3        1 MOL1        -0.1305
      15    H10     20.808435   20.521279   21.869208 H          1 MOL1         0.0997
      16    H11     19.690015   20.741654   20.536063 H          1 MOL1         0.0997
      17    C5      18.796600   21.083153   22.479132 C.3        1 MOL1        -0.2320
      18    H12     18.924510   20.784834   23.527105 H          1 MOL1         0.1008
      19    H13     18.968909   22.165645   22.420774 H          1 MOL1         0.1008
      20    H14     17.754225   20.893429   22.192044 H          1 MOL1         0.1008
@<TRIPOS>BOND
    1     1     2    1
    2     1     3    1
    3     1     4    1
    4     1     5    1
    5     5     6    1
    6     5     7    1
    7     5     8    1
    8     8     9    1
    9     8    10    1
   10     8    11    1
   11    11    12    1
   12    11    13    1
   13    11    14    1
   14    14    15    1
   15    14    16    1
   16    14    17    1
   17    17    18    1
   18    17    19    1
   19    17    20    1
@<TRIPOS>SUBSTRUCTURE
       1 MOL1            1 RESIDUE      1      MOL     
@<SCITEGIC>MOL_PROPERTY
VConf Rank
SciTegic.value.IntegerValue
892

@<SCITEGIC>MOL_PROPERTY
Conf_Id
SciTegic.value.IntegerValue
1

@<SCITEGIC>MOL_PROPERTY
Delta U+W
SciTegic.value.DoubleValue
1.032

@<SCITEGIC>MOL_PROPERTY
U+W
SciTegic.value.DoubleValue
-10.746

@<SCITEGIC>MOL_PROPERTY
Grad RMS
SciTegic.value.DoubleValue
0.000000

@<SCITEGIC>MOL_PROPERTY
U
SciTegic.value.DoubleValue
47.562

@<SCITEGIC>MOL_PROPERTY
W
SciTegic.value.DoubleValue
-58.308

@<SCITEGIC>MOL_PROPERTY
W(PB)
SciTegic.value.DoubleValue
-60.184

@<SCITEGIC>MOL_PROPERTY
W(SA)
SciTegic.value.DoubleValue
1.877

@<SCITEGIC>MOL_PROPERTY
Valence
SciTegic.value.DoubleValue
2.149

@<SCITEGIC>MOL_PROPERTY
Coulomb
SciTegic.value.DoubleValue
45.035

@<SCITEGIC>MOL_PROPERTY
VdW
SciTegic.value.DoubleValue
0.378

@<SCITEGIC>MOL_PROPERTY
VdW6
SciTegic.value.DoubleValue
-5.599

@<SCITEGIC>MOL_PROPERTY
VdW12
SciTegic.value.DoubleValue
5.978

@<SCITEGIC>MOL_PROPERTY
Bond
SciTegic.value.DoubleValue
0.185

@<SCITEGIC>MOL_PROPERTY
Angle
SciTegic.value.DoubleValue
0.935

@<SCITEGIC>MOL_PROPERTY
Pdih
SciTegic.value.DoubleValue
1.028

@<SCITEGIC>MOL_PROPERTY
Idih
SciTegic.value.DoubleValue
0.000

@<SCITEGIC>MOL_PROPERTY
Tether
SciTegic.value.DoubleValue
0.000

@<TRIPOS>MOLECULE
guest-s11_confgen4.mol2 : confsearch ligand conformer 893
          20          19           1
SMALL
USER_CHARGES
 
@<TRIPOS>ATOM
       1    N1      19.937140   17.851502   20.546842 N.4        1 MOL1        -0.5919
       2    H1      19.061020   17.334075   20.425296 H          1 MOL1         0.3682
       3    H2      19.744002   18.831407   20.320637 H          1 MOL1         0.3682
       4    H3      20.589793   17.503413   19.836755 H          1 MOL1         0.3682
       5    C1      20.494726   17.695988   21.948509 C.3        1 MOL1         0.0252
       6    H4      21.437318   18.243340   21.997974 H          1 MOL1         0.0971
       7    H5      20.713751   16.635364   22.098935 H          1 MOL1         0.0971
       8    C2      19.535346   18.176619   23.058148 C.3        1 MOL1        -0.1369
       9    H6      18.598979   17.610221   22.967428 H          1 MOL1         0.0997
      10    H7      19.952285   17.912289   24.038919 H          1 MOL1         0.0997
      11    C3      19.209454   19.694142   23.022923 C.3        1 MOL1        -0.1329
      12    H8      18.251000   19.844415   23.538876 H          1 MOL1         0.0997
      13    H9      19.041678   20.030512   21.991695 H          1 MOL1         0.0997
      14    C4      20.255237   20.606599   23.714148 C.3        1 MOL1        -0.1305
      15    H10     19.872077   21.636684   23.706356 H          1 MOL1         0.0997
      16    H11     20.349095   20.326937   24.772809 H          1 MOL1         0.0997
      17    C5      21.652102   20.598141   23.054886 C.3        1 MOL1        -0.2320
      18    H12     21.583197   20.761491   21.971683 H          1 MOL1         0.1008
      19    H13     22.277336   21.396612   23.474953 H          1 MOL1         0.1008
      20    H14     22.173752   19.651012   23.236215 H          1 MOL1         0.1008
@<TRIPOS>BOND
    1     1     2    1
    2     1     3    1
    3     1     4    1
    4     1     5    1
    5     5     6    1
    6     5     7    1
    7     5     8    1
    8     8     9    1
    9     8    10    1
   10     8    11    1
   11    11    12    1
   12    11    13    1
   13    11    14    1
   14    14    15    1
   15    14    16    1
   16    14    17    1
   17    17    18    1
   18    17    19    1
   19    17    20    1
@<TRIPOS>SUBSTRUCTURE
       1 MOL1            1 RESIDUE      1      MOL     
@<SCITEGIC>MOL_PROPERTY
VConf Rank
SciTegic.value.IntegerValue
893

@<SCITEGIC>MOL_PROPERTY
Conf_Id
SciTegic.value.IntegerValue
80

@<SCITEGIC>MOL_PROPERTY
Delta U+W
SciTegic.value.DoubleValue
2.920

@<SCITEGIC>MOL_PROPERTY
U+W
SciTegic.value.DoubleValue
-8.857

@<SCITEGIC>MOL_PROPERTY
Grad RMS
SciTegic.value.DoubleValue
0.000000

@<SCITEGIC>MOL_PROPERTY
U
SciTegic.value.DoubleValue
49.434

@<SCITEGIC>MOL_PROPERTY
W
SciTegic.value.DoubleValue
-58.292

@<SCITEGIC>MOL_PROPERTY
W(PB)
SciTegic.value.DoubleValue
-60.170

@<SCITEGIC>MOL_PROPERTY
W(SA)
SciTegic.value.DoubleValue
1.879

@<SCITEGIC>MOL_PROPERTY
Valence
SciTegic.value.DoubleValue
3.798

@<SCITEGIC>MOL_PROPERTY
Coulomb
SciTegic.value.DoubleValue
45.253

@<SCITEGIC>MOL_PROPERTY
VdW
SciTegic.value.DoubleValue
0.384

@<SCITEGIC>MOL_PROPERTY
VdW6
SciTegic.value.DoubleValue
-5.595

@<SCITEGIC>MOL_PROPERTY
VdW12
SciTegic.value.DoubleValue
5.979

@<SCITEGIC>MOL_PROPERTY
Bond
SciTegic.value.DoubleValue
0.198

@<SCITEGIC>MOL_PROPERTY
Angle
SciTegic.value.DoubleValue
1.368

@<SCITEGIC>MOL_PROPERTY
Pdih
SciTegic.value.DoubleValue
2.231

@<SCITEGIC>MOL_PROPERTY
Idih
SciTegic.value.DoubleValue
0.000

@<SCITEGIC>MOL_PROPERTY
Tether
SciTegic.value.DoubleValue
0.000

@<TRIPOS>MOLECULE
guest-s11_confgen4.mol2 : confsearch ligand conformer 894
          20          19           1
SMALL
USER_CHARGES
 
@<TRIPOS>ATOM
       1    N1      18.367452   18.246989   21.394252 N.4        1 MOL1        -0.5919
       2    H1      17.646969   17.780345   21.953929 H          1 MOL1         0.3682
       3    H2      17.982790   18.364045   20.451024 H          1 MOL1         0.3682
       4    H3      19.157234   17.599737   21.316814 H          1 MOL1         0.3682
       5    C1      18.782983   19.573078   22.001360 C.3        1 MOL1         0.0252
       6    H4      17.901682   20.220174   22.011267 H          1 MOL1         0.0971
       7    H5      19.524744   20.026822   21.342252 H          1 MOL1         0.0971
       8    C2      19.339764   19.454869   23.436194 C.3        1 MOL1        -0.1369
       9    H6      19.493503   20.460019   23.850510 H          1 MOL1         0.0997
      10    H7      18.569196   18.986468   24.062808 H          1 MOL1         0.0997
      11    C3      20.652570   18.635136   23.558269 C.3        1 MOL1        -0.1329
      12    H8      20.608374   17.736945   22.928968 H          1 MOL1         0.0997
      13    H9      20.723498   18.265419   24.590598 H          1 MOL1         0.0997
      14    C4      21.951615   19.427364   23.260110 C.3        1 MOL1        -0.1305
      15    H10     22.039132   20.271950   23.957818 H          1 MOL1         0.0997
      16    H11     22.809557   18.772821   23.468577 H          1 MOL1         0.0997
      17    C5      22.070898   19.944897   21.809642 C.3        1 MOL1        -0.2320
      18    H12     21.375202   20.771194   21.621781 H          1 MOL1         0.1008
      19    H13     23.083064   20.326187   21.622382 H          1 MOL1         0.1008
      20    H14     21.874301   19.145789   21.083324 H          1 MOL1         0.1008
@<TRIPOS>BOND
    1     1     2    1
    2     1     3    1
    3     1     4    1
    4     1     5    1
    5     5     6    1
    6     5     7    1
    7     5     8    1
    8     8     9    1
    9     8    10    1
   10     8    11    1
   11    11    12    1
   12    11    13    1
   13    11    14    1
   14    14    15    1
   15    14    16    1
   16    14    17    1
   17    17    18    1
   18    17    19    1
   19    17    20    1
@<TRIPOS>SUBSTRUCTURE
       1 MOL1            1 RESIDUE      1      MOL     
@<SCITEGIC>MOL_PROPERTY
VConf Rank
SciTegic.value.IntegerValue
894

@<SCITEGIC>MOL_PROPERTY
Conf_Id
SciTegic.value.IntegerValue
65

@<SCITEGIC>MOL_PROPERTY
Delta U+W
SciTegic.value.DoubleValue
2.949

@<SCITEGIC>MOL_PROPERTY
U+W
SciTegic.value.DoubleValue
-8.829

@<SCITEGIC>MOL_PROPERTY
Grad RMS
SciTegic.value.DoubleValue
0.000000

@<SCITEGIC>MOL_PROPERTY
U
SciTegic.value.DoubleValue
49.435

@<SCITEGIC>MOL_PROPERTY
W
SciTegic.value.DoubleValue
-58.263

@<SCITEGIC>MOL_PROPERTY
W(PB)
SciTegic.value.DoubleValue
-60.125

@<SCITEGIC>MOL_PROPERTY
W(SA)
SciTegic.value.DoubleValue
1.862

@<SCITEGIC>MOL_PROPERTY
Valence
SciTegic.value.DoubleValue
3.797

@<SCITEGIC>MOL_PROPERTY
Coulomb
SciTegic.value.DoubleValue
45.253

@<SCITEGIC>MOL_PROPERTY
VdW
SciTegic.value.DoubleValue
0.384

@<SCITEGIC>MOL_PROPERTY
VdW6
SciTegic.value.DoubleValue
-5.596

@<SCITEGIC>MOL_PROPERTY
VdW12
SciTegic.value.DoubleValue
5.980

@<SCITEGIC>MOL_PROPERTY
Bond
SciTegic.value.DoubleValue
0.198

@<SCITEGIC>MOL_PROPERTY
Angle
SciTegic.value.DoubleValue
1.369

@<SCITEGIC>MOL_PROPERTY
Pdih
SciTegic.value.DoubleValue
2.230

@<SCITEGIC>MOL_PROPERTY
Idih
SciTegic.value.DoubleValue
0.000

@<SCITEGIC>MOL_PROPERTY
Tether
SciTegic.value.DoubleValue
0.000

@<TRIPOS>MOLECULE
guest-s11_confgen4.mol2 : confsearch ligand conformer 895
          20          19           1
SMALL
USER_CHARGES
 
@<TRIPOS>ATOM
       1    N1      20.127592   17.391843   23.168733 N.4        1 MOL1        -0.5919
       2    H1      20.120796   16.932447   24.085570 H          1 MOL1         0.3682
       3    H2      19.263635   17.937417   23.093543 H          1 MOL1         0.3682
       4    H3      20.082120   16.649787   22.463261 H          1 MOL1         0.3682
       5    C1      21.352185   18.267370   22.986036 C.3        1 MOL1         0.0252
       6    H4      22.226345   17.616947   23.077224 H          1 MOL1         0.0971
       7    H5      21.386150   18.997095   23.799391 H          1 MOL1         0.0971
       8    C2      21.405446   18.994622   21.627110 C.3        1 MOL1        -0.1369
       9    H6      22.455804   19.239625   21.420879 H          1 MOL1         0.0997
      10    H7      21.096293   18.309628   20.826475 H          1 MOL1         0.0997
      11    C3      20.588206   20.312190   21.549699 C.3        1 MOL1        -0.1329
      12    H8      20.759831   20.746827   20.555134 H          1 MOL1         0.0997
      13    H9      20.990542   21.044851   22.263001 H          1 MOL1         0.0997
      14    C4      19.058613   20.160271   21.749168 C.3        1 MOL1        -0.1305
      15    H10     18.547262   20.882156   21.096742 H          1 MOL1         0.0997
      16    H11     18.723573   19.169909   21.412723 H          1 MOL1         0.0997
      17    C5      18.605248   20.433745   23.202952 C.3        1 MOL1        -0.2320
      18    H12     19.124038   19.800253   23.930373 H          1 MOL1         0.1008
      19    H13     18.801237   21.478315   23.478243 H          1 MOL1         0.1008
      20    H14     17.526512   20.260919   23.310849 H          1 MOL1         0.1008
@<TRIPOS>BOND
    1     1     2    1
    2     1     3    1
    3     1     4    1
    4     1     5    1
    5     5     6    1
    6     5     7    1
    7     5     8    1
    8     8     9    1
    9     8    10    1
   10     8    11    1
   11    11    12    1
   12    11    13    1
   13    11    14    1
   14    14    15    1
   15    14    16    1
   16    14    17    1
   17    17    18    1
   18    17    19    1
   19    17    20    1
@<TRIPOS>SUBSTRUCTURE
       1 MOL1            1 RESIDUE      1      MOL     
@<SCITEGIC>MOL_PROPERTY
VConf Rank
SciTegic.value.IntegerValue
895

@<SCITEGIC>MOL_PROPERTY
Conf_Id
SciTegic.value.IntegerValue
77

@<SCITEGIC>MOL_PROPERTY
Delta U+W
SciTegic.value.DoubleValue
5.366

@<SCITEGIC>MOL_PROPERTY
U+W
SciTegic.value.DoubleValue
-6.412

@<SCITEGIC>MOL_PROPERTY
Grad RMS
SciTegic.value.DoubleValue
0.000000

@<SCITEGIC>MOL_PROPERTY
U
SciTegic.value.DoubleValue
51.542

@<SCITEGIC>MOL_PROPERTY
W
SciTegic.value.DoubleValue
-57.954

@<SCITEGIC>MOL_PROPERTY
W(PB)
SciTegic.value.DoubleValue
-59.811

@<SCITEGIC>MOL_PROPERTY
W(SA)
SciTegic.value.DoubleValue
1.857

@<SCITEGIC>MOL_PROPERTY
Valence
SciTegic.value.DoubleValue
5.347

@<SCITEGIC>MOL_PROPERTY
Coulomb
SciTegic.value.DoubleValue
45.870

@<SCITEGIC>MOL_PROPERTY
VdW
SciTegic.value.DoubleValue
0.325

@<SCITEGIC>MOL_PROPERTY
VdW6
SciTegic.value.DoubleValue
-6.161

@<SCITEGIC>MOL_PROPERTY
VdW12
SciTegic.value.DoubleValue
6.486

@<SCITEGIC>MOL_PROPERTY
Bond
SciTegic.value.DoubleValue
0.201

@<SCITEGIC>MOL_PROPERTY
Angle
SciTegic.value.DoubleValue
1.484

@<SCITEGIC>MOL_PROPERTY
Pdih
SciTegic.value.DoubleValue
3.662

@<SCITEGIC>MOL_PROPERTY
Idih
SciTegic.value.DoubleValue
0.000

@<SCITEGIC>MOL_PROPERTY
Tether
SciTegic.value.DoubleValue
0.000

@<TRIPOS>MOLECULE
guest-s11_confgen4.mol2 : confsearch ligand conformer 896
          20          19           1
SMALL
USER_CHARGES
 
@<TRIPOS>ATOM
       1    N1      20.011499   17.184746   21.788044 N.4        1 MOL1        -0.5919
       2    H1      19.519930   17.093275   20.893393 H          1 MOL1         0.3682
       3    H2      20.856626   17.737953   21.616438 H          1 MOL1         0.3682
       4    H3      20.312148   16.242971   22.060721 H          1 MOL1         0.3682
       5    C1      19.136480   17.825977   22.847631 C.3        1 MOL1         0.0252
       6    H4      19.683982   17.839092   23.793818 H          1 MOL1         0.0971
       7    H5      18.261098   17.182586   22.971222 H          1 MOL1         0.0971
       8    C2      18.667266   19.251880   22.494008 C.3        1 MOL1        -0.1369
       9    H6      18.370153   19.294258   21.437723 H          1 MOL1         0.0997
      10    H7      17.754003   19.454695   23.069012 H          1 MOL1         0.0997
      11    C3      19.685467   20.380428   22.809457 C.3        1 MOL1        -0.1329
      12    H8      19.876881   20.420579   23.890759 H          1 MOL1         0.0997
      13    H9      19.203179   21.336200   22.561617 H          1 MOL1         0.0997
      14    C4      21.025712   20.304474   22.034542 C.3        1 MOL1        -0.1305
      15    H10     20.879677   19.817948   21.060772 H          1 MOL1         0.0997
      16    H11     21.356539   21.327625   21.806562 H          1 MOL1         0.0997
      17    C5      22.152805   19.611214   22.836336 C.3        1 MOL1        -0.2320
      18    H12     23.064785   19.529853   22.230651 H          1 MOL1         0.1008
      19    H13     22.402939   20.193522   23.732814 H          1 MOL1         0.1008
      20    H14     21.874704   18.604593   23.166437 H          1 MOL1         0.1008
@<TRIPOS>BOND
    1     1     2    1
    2     1     3    1
    3     1     4    1
    4     1     5    1
    5     5     6    1
    6     5     7    1
    7     5     8    1
    8     8     9    1
    9     8    10    1
   10     8    11    1
   11    11    12    1
   12    11    13    1
   13    11    14    1
   14    14    15    1
   15    14    16    1
   16    14    17    1
   17    17    18    1
   18    17    19    1
   19    17    20    1
@<TRIPOS>SUBSTRUCTURE
       1 MOL1            1 RESIDUE      1      MOL     
@<SCITEGIC>MOL_PROPERTY
VConf Rank
SciTegic.value.IntegerValue
896

@<SCITEGIC>MOL_PROPERTY
Conf_Id
SciTegic.value.IntegerValue
67

@<SCITEGIC>MOL_PROPERTY
Delta U+W
SciTegic.value.DoubleValue
5.353

@<SCITEGIC>MOL_PROPERTY
U+W
SciTegic.value.DoubleValue
-6.425

@<SCITEGIC>MOL_PROPERTY
Grad RMS
SciTegic.value.DoubleValue
0.000000

@<SCITEGIC>MOL_PROPERTY
U
SciTegic.value.DoubleValue
51.541

@<SCITEGIC>MOL_PROPERTY
W
SciTegic.value.DoubleValue
-57.966

@<SCITEGIC>MOL_PROPERTY
W(PB)
SciTegic.value.DoubleValue
-59.821

@<SCITEGIC>MOL_PROPERTY
W(SA)
SciTegic.value.DoubleValue
1.855

@<SCITEGIC>MOL_PROPERTY
Valence
SciTegic.value.DoubleValue
5.347

@<SCITEGIC>MOL_PROPERTY
Coulomb
SciTegic.value.DoubleValue
45.870

@<SCITEGIC>MOL_PROPERTY
VdW
SciTegic.value.DoubleValue
0.325

@<SCITEGIC>MOL_PROPERTY
VdW6
SciTegic.value.DoubleValue
-6.161

@<SCITEGIC>MOL_PROPERTY
VdW12
SciTegic.value.DoubleValue
6.486

@<SCITEGIC>MOL_PROPERTY
Bond
SciTegic.value.DoubleValue
0.201

@<SCITEGIC>MOL_PROPERTY
Angle
SciTegic.value.DoubleValue
1.485

@<SCITEGIC>MOL_PROPERTY
Pdih
SciTegic.value.DoubleValue
3.662

@<SCITEGIC>MOL_PROPERTY
Idih
SciTegic.value.DoubleValue
0.000

@<SCITEGIC>MOL_PROPERTY
Tether
SciTegic.value.DoubleValue
0.000

@<TRIPOS>MOLECULE
guest-s11_confgen4.mol2 : confsearch ligand conformer 897
          20          19           1
SMALL
USER_CHARGES
 
@<TRIPOS>ATOM
       1    N1      17.239193   19.890785   23.596233 N.4        1 MOL1        -0.5919
       2    H1      17.497403   20.018193   24.579840 H          1 MOL1         0.3682
       3    H2      16.507181   20.578607   23.389694 H          1 MOL1         0.3682
       4    H3      16.807732   18.964648   23.515613 H          1 MOL1         0.3682
       5    C1      18.431355   20.042835   22.673129 C.3        1 MOL1         0.0252
       6    H4      18.820421   21.058108   22.788740 H          1 MOL1         0.0971
       7    H5      18.079075   19.925356   21.644726 H          1 MOL1         0.0971
       8    C2      19.549923   19.024227   22.956864 C.3        1 MOL1        -0.1369
       9    H6      19.889577   19.135031   23.995337 H          1 MOL1         0.0997
      10    H7      19.150796   18.006168   22.855267 H          1 MOL1         0.0997
      11    C3      20.744575   19.213115   21.995688 C.3        1 MOL1        -0.1329
      12    H8      21.138066   20.234318   22.096185 H          1 MOL1         0.0997
      13    H9      20.400196   19.106725   20.957480 H          1 MOL1         0.0997
      14    C4      21.874174   18.195508   22.271406 C.3        1 MOL1        -0.1305
      15    H10     22.223076   18.299932   23.308427 H          1 MOL1         0.0997
      16    H11     21.485351   17.172504   22.169791 H          1 MOL1         0.0997
      17    C5      23.065562   18.388057   21.308858 C.3        1 MOL1        -0.2320
      18    H12     23.498392   19.391688   21.411806 H          1 MOL1         0.1008
      19    H13     23.856793   17.657059   21.520140 H          1 MOL1         0.1008
      20    H14     22.754950   18.255323   20.264294 H          1 MOL1         0.1008
@<TRIPOS>BOND
    1     1     2    1
    2     1     3    1
    3     1     4    1
    4     1     5    1
    5     5     6    1
    6     5     7    1
    7     5     8    1
    8     8     9    1
    9     8    10    1
   10     8    11    1
   11    11    12    1
   12    11    13    1
   13    11    14    1
   14    14    15    1
   15    14    16    1
   16    14    17    1
   17    17    18    1
   18    17    19    1
   19    17    20    1
@<TRIPOS>SUBSTRUCTURE
       1 MOL1            1 RESIDUE      1      MOL     
@<SCITEGIC>MOL_PROPERTY
VConf Rank
SciTegic.value.IntegerValue
897

@<SCITEGIC>MOL_PROPERTY
Conf_Id
SciTegic.value.IntegerValue
72

@<SCITEGIC>MOL_PROPERTY
Delta U+W
SciTegic.value.DoubleValue
0.000

@<SCITEGIC>MOL_PROPERTY
U+W
SciTegic.value.DoubleValue
-11.778

@<SCITEGIC>MOL_PROPERTY
Grad RMS
SciTegic.value.DoubleValue
0.000000

@<SCITEGIC>MOL_PROPERTY
U
SciTegic.value.DoubleValue
45.772

@<SCITEGIC>MOL_PROPERTY
W
SciTegic.value.DoubleValue
-57.550

@<SCITEGIC>MOL_PROPERTY
W(PB)
SciTegic.value.DoubleValue
-59.511

@<SCITEGIC>MOL_PROPERTY
W(SA)
SciTegic.value.DoubleValue
1.961

@<SCITEGIC>MOL_PROPERTY
Valence
SciTegic.value.DoubleValue
1.299

@<SCITEGIC>MOL_PROPERTY
Coulomb
SciTegic.value.DoubleValue
44.177

@<SCITEGIC>MOL_PROPERTY
VdW
SciTegic.value.DoubleValue
0.297

@<SCITEGIC>MOL_PROPERTY
VdW6
SciTegic.value.DoubleValue
-3.490

@<SCITEGIC>MOL_PROPERTY
VdW12
SciTegic.value.DoubleValue
3.786

@<SCITEGIC>MOL_PROPERTY
Bond
SciTegic.value.DoubleValue
0.096

@<SCITEGIC>MOL_PROPERTY
Angle
SciTegic.value.DoubleValue
0.381

@<SCITEGIC>MOL_PROPERTY
Pdih
SciTegic.value.DoubleValue
0.822

@<SCITEGIC>MOL_PROPERTY
Idih
SciTegic.value.DoubleValue
0.000

@<SCITEGIC>MOL_PROPERTY
Tether
SciTegic.value.DoubleValue
0.000

@<TRIPOS>MOLECULE
guest-s11_confgen4.mol2 : confsearch ligand conformer 898
          20          19           1
SMALL
USER_CHARGES
 
@<TRIPOS>ATOM
       1    N1      17.836553   17.324000   21.805232 N.4        1 MOL1        -0.5919
       2    H1      17.404777   17.477715   22.721899 H          1 MOL1         0.3682
       3    H2      17.354591   17.935478   21.138771 H          1 MOL1         0.3682
       4    H3      17.620656   16.359170   21.533069 H          1 MOL1         0.3682
       5    C1      19.329869   17.580645   21.831974 C.3        1 MOL1         0.0252
       6    H4      19.726473   17.368753   20.835329 H          1 MOL1         0.0971
       7    H5      19.780714   16.877351   22.537397 H          1 MOL1         0.0971
       8    C2      19.689198   19.021607   22.236673 C.3        1 MOL1        -0.1369
       9    H6      19.221388   19.724985   21.535086 H          1 MOL1         0.0997
      10    H7      19.271371   19.228899   23.229908 H          1 MOL1         0.0997
      11    C3      21.220808   19.238782   22.248288 C.3        1 MOL1        -0.1329
      12    H8      21.630038   18.953207   21.269146 H          1 MOL1         0.0997
      13    H9      21.684358   18.566971   22.984072 H          1 MOL1         0.0997
      14    C4      21.635475   20.699890   22.548098 C.3        1 MOL1        -0.1305
      15    H10     22.725040   20.787752   22.433781 H          1 MOL1         0.0997
      16    H11     21.193331   21.372904   21.800143 H          1 MOL1         0.0997
      17    C5      21.244107   21.171241   23.967320 C.3        1 MOL1        -0.2320
      18    H12     21.650728   20.498333   24.733394 H          1 MOL1         0.1008
      19    H13     21.639443   22.176867   24.160654 H          1 MOL1         0.1008
      20    H14     20.155110   21.216346   24.091704 H          1 MOL1         0.1008
@<TRIPOS>BOND
    1     1     2    1
    2     1     3    1
    3     1     4    1
    4     1     5    1
    5     5     6    1
    6     5     7    1
    7     5     8    1
    8     8     9    1
    9     8    10    1
   10     8    11    1
   11    11    12    1
   12    11    13    1
   13    11    14    1
   14    14    15    1
   15    14    16    1
   16    14    17    1
   17    17    18    1
   18    17    19    1
   19    17    20    1
@<TRIPOS>SUBSTRUCTURE
       1 MOL1            1 RESIDUE      1      MOL     
@<SCITEGIC>MOL_PROPERTY
VConf Rank
SciTegic.value.IntegerValue
898

@<SCITEGIC>MOL_PROPERTY
Conf_Id
SciTegic.value.IntegerValue
42

@<SCITEGIC>MOL_PROPERTY
Delta U+W
SciTegic.value.DoubleValue
0.508

@<SCITEGIC>MOL_PROPERTY
U+W
SciTegic.value.DoubleValue
-11.270

@<SCITEGIC>MOL_PROPERTY
Grad RMS
SciTegic.value.DoubleValue
0.000000

@<SCITEGIC>MOL_PROPERTY
U
SciTegic.value.DoubleValue
46.486

@<SCITEGIC>MOL_PROPERTY
W
SciTegic.value.DoubleValue
-57.756

@<SCITEGIC>MOL_PROPERTY
W(PB)
SciTegic.value.DoubleValue
-59.705

@<SCITEGIC>MOL_PROPERTY
W(SA)
SciTegic.value.DoubleValue
1.949

@<SCITEGIC>MOL_PROPERTY
Valence
SciTegic.value.DoubleValue
1.806

@<SCITEGIC>MOL_PROPERTY
Coulomb
SciTegic.value.DoubleValue
44.248

@<SCITEGIC>MOL_PROPERTY
VdW
SciTegic.value.DoubleValue
0.433

@<SCITEGIC>MOL_PROPERTY
VdW6
SciTegic.value.DoubleValue
-4.089

@<SCITEGIC>MOL_PROPERTY
VdW12
SciTegic.value.DoubleValue
4.522

@<SCITEGIC>MOL_PROPERTY
Bond
SciTegic.value.DoubleValue
0.131

@<SCITEGIC>MOL_PROPERTY
Angle
SciTegic.value.DoubleValue
0.628

@<SCITEGIC>MOL_PROPERTY
Pdih
SciTegic.value.DoubleValue
1.047

@<SCITEGIC>MOL_PROPERTY
Idih
SciTegic.value.DoubleValue
0.000

@<SCITEGIC>MOL_PROPERTY
Tether
SciTegic.value.DoubleValue
0.000

@<TRIPOS>MOLECULE
guest-s11_confgen4.mol2 : confsearch ligand conformer 899
          20          19           1
SMALL
USER_CHARGES
 
@<TRIPOS>ATOM
       1    N1      20.040715   21.256574   20.439480 N.4        1 MOL1        -0.5919
       2    H1      19.303516   20.856236   19.850726 H          1 MOL1         0.3682
       3    H2      19.584406   21.885542   21.107698 H          1 MOL1         0.3682
       4    H3      20.622559   21.841488   19.830453 H          1 MOL1         0.3682
       5    C1      20.854784   20.184391   21.135393 C.3        1 MOL1         0.0252
       6    H4      21.636530   20.679059   21.718216 H          1 MOL1         0.0971
       7    H5      21.334901   19.573046   20.366472 H          1 MOL1         0.0971
       8    C2      20.010732   19.286991   22.058172 C.3        1 MOL1        -0.1369
       9    H6      19.519876   19.912669   22.814250 H          1 MOL1         0.0997
      10    H7      19.217321   18.804689   21.471917 H          1 MOL1         0.0997
      11    C3      20.880543   18.207469   22.744608 C.3        1 MOL1        -0.1329
      12    H8      21.645912   18.690187   23.368131 H          1 MOL1         0.0997
      13    H9      21.422469   17.641515   21.974052 H          1 MOL1         0.0997
      14    C4      20.064865   17.211624   23.604625 C.3        1 MOL1        -0.1305
      15    H10     19.313679   16.708853   22.979471 H          1 MOL1         0.0997
      16    H11     20.739768   16.423418   23.966806 H          1 MOL1         0.0997
      17    C5      19.372859   17.871489   24.819220 C.3        1 MOL1        -0.2320
      18    H12     18.599641   18.583639   24.505532 H          1 MOL1         0.1008
      19    H13     18.886247   17.111195   25.443810 H          1 MOL1         0.1008
      20    H14     20.099017   18.405341   25.445886 H          1 MOL1         0.1008
@<TRIPOS>BOND
    1     1     2    1
    2     1     3    1
    3     1     4    1
    4     1     5    1
    5     5     6    1
    6     5     7    1
    7     5     8    1
    8     8     9    1
    9     8    10    1
   10     8    11    1
   11    11    12    1
   12    11    13    1
   13    11    14    1
   14    14    15    1
   15    14    16    1
   16    14    17    1
   17    17    18    1
   18    17    19    1
   19    17    20    1
@<TRIPOS>SUBSTRUCTURE
       1 MOL1            1 RESIDUE      1      MOL     
@<SCITEGIC>MOL_PROPERTY
VConf Rank
SciTegic.value.IntegerValue
899

@<SCITEGIC>MOL_PROPERTY
Conf_Id
SciTegic.value.IntegerValue
41

@<SCITEGIC>MOL_PROPERTY
Delta U+W
SciTegic.value.DoubleValue
0.515

@<SCITEGIC>MOL_PROPERTY
U+W
SciTegic.value.DoubleValue
-11.263

@<SCITEGIC>MOL_PROPERTY
Grad RMS
SciTegic.value.DoubleValue
0.000000

@<SCITEGIC>MOL_PROPERTY
U
SciTegic.value.DoubleValue
46.486

@<SCITEGIC>MOL_PROPERTY
W
SciTegic.value.DoubleValue
-57.749

@<SCITEGIC>MOL_PROPERTY
W(PB)
SciTegic.value.DoubleValue
-59.685

@<SCITEGIC>MOL_PROPERTY
W(SA)
SciTegic.value.DoubleValue
1.936

@<SCITEGIC>MOL_PROPERTY
Valence
SciTegic.value.DoubleValue
1.806

@<SCITEGIC>MOL_PROPERTY
Coulomb
SciTegic.value.DoubleValue
44.248

@<SCITEGIC>MOL_PROPERTY
VdW
SciTegic.value.DoubleValue
0.433

@<SCITEGIC>MOL_PROPERTY
VdW6
SciTegic.value.DoubleValue
-4.089

@<SCITEGIC>MOL_PROPERTY
VdW12
SciTegic.value.DoubleValue
4.522

@<SCITEGIC>MOL_PROPERTY
Bond
SciTegic.value.DoubleValue
0.131

@<SCITEGIC>MOL_PROPERTY
Angle
SciTegic.value.DoubleValue
0.628

@<SCITEGIC>MOL_PROPERTY
Pdih
SciTegic.value.DoubleValue
1.047

@<SCITEGIC>MOL_PROPERTY
Idih
SciTegic.value.DoubleValue
0.000

@<SCITEGIC>MOL_PROPERTY
Tether
SciTegic.value.DoubleValue
0.000

@<TRIPOS>MOLECULE
guest-s11_confgen4.mol2 : confsearch ligand conformer 900
          20          19           1
SMALL
USER_CHARGES
 
@<TRIPOS>ATOM
       1    N1      21.677621   17.853400   20.543338 N.4        1 MOL1        -0.5919
       2    H1      21.782862   17.197195   19.762427 H          1 MOL1         0.3682
       3    H2      21.534924   18.781867   20.135262 H          1 MOL1         0.3682
       4    H3      22.575133   17.874402   21.037529 H          1 MOL1         0.3682
       5    C1      20.536663   17.457737   21.460850 C.3        1 MOL1         0.0252
       6    H4      20.737728   16.444793   21.820176 H          1 MOL1         0.0971
       7    H5      19.617658   17.432025   20.869064 H          1 MOL1         0.0971
       8    C2      20.350353   18.398459   22.667581 C.3        1 MOL1        -0.1369
       9    H6      19.586771   17.961133   23.322788 H          1 MOL1         0.0997
      10    H7      21.280388   18.435775   23.250102 H          1 MOL1         0.0997
      11    C3      19.925894   19.829365   22.251094 C.3        1 MOL1        -0.1329
      12    H8      18.983005   19.786304   21.688444 H          1 MOL1         0.0997
      13    H9      20.675251   20.248223   21.566529 H          1 MOL1         0.0997
      14    C4      19.769601   20.798968   23.447932 C.3        1 MOL1        -0.1305
      15    H10     20.714559   20.856062   24.006198 H          1 MOL1         0.0997
      16    H11     19.581317   21.809816   23.059761 H          1 MOL1         0.0997
      17    C5      18.620710   20.413797   24.407856 C.3        1 MOL1        -0.2320
      18    H12     18.822233   19.464442   24.919112 H          1 MOL1         0.1008
      19    H13     18.492337   21.182597   25.180783 H          1 MOL1         0.1008
      20    H14     17.669522   20.319389   23.868104 H          1 MOL1         0.1008
@<TRIPOS>BOND
    1     1     2    1
    2     1     3    1
    3     1     4    1
    4     1     5    1
    5     5     6    1
    6     5     7    1
    7     5     8    1
    8     8     9    1
    9     8    10    1
   10     8    11    1
   11    11    12    1
   12    11    13    1
   13    11    14    1
   14    14    15    1
   15    14    16    1
   16    14    17    1
   17    17    18    1
   18    17    19    1
   19    17    20    1
@<TRIPOS>SUBSTRUCTURE
       1 MOL1            1 RESIDUE      1      MOL     
@<SCITEGIC>MOL_PROPERTY
VConf Rank
SciTegic.value.IntegerValue
900

@<SCITEGIC>MOL_PROPERTY
Conf_Id
SciTegic.value.IntegerValue
33

@<SCITEGIC>MOL_PROPERTY
Delta U+W
SciTegic.value.DoubleValue
0.703

@<SCITEGIC>MOL_PROPERTY
U+W
SciTegic.value.DoubleValue
-11.075

@<SCITEGIC>MOL_PROPERTY
Grad RMS
SciTegic.value.DoubleValue
0.000000

@<SCITEGIC>MOL_PROPERTY
U
SciTegic.value.DoubleValue
47.080

@<SCITEGIC>MOL_PROPERTY
W
SciTegic.value.DoubleValue
-58.154

@<SCITEGIC>MOL_PROPERTY
W(PB)
SciTegic.value.DoubleValue
-60.053

@<SCITEGIC>MOL_PROPERTY
W(SA)
SciTegic.value.DoubleValue
1.899

@<SCITEGIC>MOL_PROPERTY
Valence
SciTegic.value.DoubleValue
1.943

@<SCITEGIC>MOL_PROPERTY
Coulomb
SciTegic.value.DoubleValue
44.572

@<SCITEGIC>MOL_PROPERTY
VdW
SciTegic.value.DoubleValue
0.565

@<SCITEGIC>MOL_PROPERTY
VdW6
SciTegic.value.DoubleValue
-4.575

@<SCITEGIC>MOL_PROPERTY
VdW12
SciTegic.value.DoubleValue
5.139

@<SCITEGIC>MOL_PROPERTY
Bond
SciTegic.value.DoubleValue
0.158

@<SCITEGIC>MOL_PROPERTY
Angle
SciTegic.value.DoubleValue
0.700

@<SCITEGIC>MOL_PROPERTY
Pdih
SciTegic.value.DoubleValue
1.085

@<SCITEGIC>MOL_PROPERTY
Idih
SciTegic.value.DoubleValue
0.000

@<SCITEGIC>MOL_PROPERTY
Tether
SciTegic.value.DoubleValue
0.000

@<TRIPOS>MOLECULE
guest-s11_confgen4.mol2 : confsearch ligand conformer 901
          20          19           1
SMALL
USER_CHARGES
 
@<TRIPOS>ATOM
       1    N1      22.030345   20.065336   24.258900 N.4        1 MOL1        -0.5919
       2    H1      22.996448   20.149236   24.592225 H          1 MOL1         0.3682
       3    H2      21.540585   20.917809   24.548070 H          1 MOL1         0.3682
       4    H3      21.606005   19.284781   24.768416 H          1 MOL1         0.3682
       5    C1      21.969012   19.860319   22.757444 C.3        1 MOL1         0.0252
       6    H4      22.527165   18.951903   22.515191 H          1 MOL1         0.0971
       7    H5      22.477183   20.706729   22.287387 H          1 MOL1         0.0971
       8    C2      20.536153   19.752967   22.199543 C.3        1 MOL1        -0.1369
       9    H6      19.972926   20.659028   22.459391 H          1 MOL1         0.0997
      10    H7      20.600490   19.726401   21.104663 H          1 MOL1         0.0997
      11    C3      19.787377   18.496363   22.710812 C.3        1 MOL1        -0.1329
      12    H8      19.757837   18.509782   23.808336 H          1 MOL1         0.0997
      13    H9      20.345050   17.592891   22.427604 H          1 MOL1         0.0997
      14    C4      18.333309   18.390599   22.189778 C.3        1 MOL1        -0.1305
      15    H10     17.842340   17.541860   22.686299 H          1 MOL1         0.0997
      16    H11     17.767328   19.286111   22.482334 H          1 MOL1         0.0997
      17    C5      18.239305   18.192639   20.659503 C.3        1 MOL1        -0.2320
      18    H12     18.823318   17.320868   20.337091 H          1 MOL1         0.1008
      19    H13     17.197003   18.027966   20.357116 H          1 MOL1         0.1008
      20    H14     18.604273   19.072146   20.114951 H          1 MOL1         0.1008
@<TRIPOS>BOND
    1     1     2    1
    2     1     3    1
    3     1     4    1
    4     1     5    1
    5     5     6    1
    6     5     7    1
    7     5     8    1
    8     8     9    1
    9     8    10    1
   10     8    11    1
   11    11    12    1
   12    11    13    1
   13    11    14    1
   14    14    15    1
   15    14    16    1
   16    14    17    1
   17    17    18    1
   18    17    19    1
   19    17    20    1
@<TRIPOS>SUBSTRUCTURE
       1 MOL1            1 RESIDUE      1      MOL     
@<SCITEGIC>MOL_PROPERTY
VConf Rank
SciTegic.value.IntegerValue
901

@<SCITEGIC>MOL_PROPERTY
Conf_Id
SciTegic.value.IntegerValue
24

@<SCITEGIC>MOL_PROPERTY
Delta U+W
SciTegic.value.DoubleValue
0.847

@<SCITEGIC>MOL_PROPERTY
U+W
SciTegic.value.DoubleValue
-10.931

@<SCITEGIC>MOL_PROPERTY
Grad RMS
SciTegic.value.DoubleValue
0.000000

@<SCITEGIC>MOL_PROPERTY
U
SciTegic.value.DoubleValue
47.080

@<SCITEGIC>MOL_PROPERTY
W
SciTegic.value.DoubleValue
-58.011

@<SCITEGIC>MOL_PROPERTY
W(PB)
SciTegic.value.DoubleValue
-59.914

@<SCITEGIC>MOL_PROPERTY
W(SA)
SciTegic.value.DoubleValue
1.903

@<SCITEGIC>MOL_PROPERTY
Valence
SciTegic.value.DoubleValue
1.943

@<SCITEGIC>MOL_PROPERTY
Coulomb
SciTegic.value.DoubleValue
44.572

@<SCITEGIC>MOL_PROPERTY
VdW
SciTegic.value.DoubleValue
0.565

@<SCITEGIC>MOL_PROPERTY
VdW6
SciTegic.value.DoubleValue
-4.575

@<SCITEGIC>MOL_PROPERTY
VdW12
SciTegic.value.DoubleValue
5.140

@<SCITEGIC>MOL_PROPERTY
Bond
SciTegic.value.DoubleValue
0.158

@<SCITEGIC>MOL_PROPERTY
Angle
SciTegic.value.DoubleValue
0.700

@<SCITEGIC>MOL_PROPERTY
Pdih
SciTegic.value.DoubleValue
1.085

@<SCITEGIC>MOL_PROPERTY
Idih
SciTegic.value.DoubleValue
0.000

@<SCITEGIC>MOL_PROPERTY
Tether
SciTegic.value.DoubleValue
0.000

@<TRIPOS>MOLECULE
guest-s11_confgen4.mol2 : confsearch ligand conformer 902
          20          19           1
SMALL
USER_CHARGES
 
@<TRIPOS>ATOM
       1    N1      22.666092   18.271666   21.992048 N.4        1 MOL1        -0.5919
       2    H1      23.506880   18.429387   22.557458 H          1 MOL1         0.3682
       3    H2      22.370517   17.305230   22.161928 H          1 MOL1         0.3682
       4    H3      22.953309   18.330639   21.010041 H          1 MOL1         0.3682
       5    C1      21.570800   19.265481   22.322192 C.3        1 MOL1         0.0252
       6    H4      21.962575   20.271021   22.146753 H          1 MOL1         0.0971
       7    H5      21.338095   19.167688   23.385803 H          1 MOL1         0.0971
       8    C2      20.291919   19.055453   21.489740 C.3        1 MOL1        -0.1369
       9    H6      20.544417   19.114385   20.422720 H          1 MOL1         0.0997
      10    H7      19.902875   18.043153   21.658106 H          1 MOL1         0.0997
      11    C3      19.194622   20.103558   21.801848 C.3        1 MOL1        -0.1329
      12    H8      18.319881   19.903074   21.167895 H          1 MOL1         0.0997
      13    H9      19.558122   21.098323   21.508926 H          1 MOL1         0.0997
      14    C4      18.745171   20.153585   23.284655 C.3        1 MOL1        -0.1305
      15    H10     19.584151   20.456994   23.925618 H          1 MOL1         0.0997
      16    H11     17.983994   20.938844   23.393551 H          1 MOL1         0.0997
      17    C5      18.158363   18.817588   23.794337 C.3        1 MOL1        -0.2320
      18    H12     17.771303   18.932239   24.815093 H          1 MOL1         0.1008
      19    H13     17.330030   18.481488   23.157253 H          1 MOL1         0.1008
      20    H14     18.918165   18.026496   23.816945 H          1 MOL1         0.1008
@<TRIPOS>BOND
    1     1     2    1
    2     1     3    1
    3     1     4    1
    4     1     5    1
    5     5     6    1
    6     5     7    1
    7     5     8    1
    8     8     9    1
    9     8    10    1
   10     8    11    1
   11    11    12    1
   12    11    13    1
   13    11    14    1
   14    14    15    1
   15    14    16    1
   16    14    17    1
   17    17    18    1
   18    17    19    1
   19    17    20    1
@<TRIPOS>SUBSTRUCTURE
       1 MOL1            1 RESIDUE      1      MOL     
@<SCITEGIC>MOL_PROPERTY
VConf Rank
SciTegic.value.IntegerValue
902

@<SCITEGIC>MOL_PROPERTY
Conf_Id
SciTegic.value.IntegerValue
64

@<SCITEGIC>MOL_PROPERTY
Delta U+W
SciTegic.value.DoubleValue
0.707

@<SCITEGIC>MOL_PROPERTY
U+W
SciTegic.value.DoubleValue
-11.070

@<SCITEGIC>MOL_PROPERTY
Grad RMS
SciTegic.value.DoubleValue
0.000000

@<SCITEGIC>MOL_PROPERTY
U
SciTegic.value.DoubleValue
47.077

@<SCITEGIC>MOL_PROPERTY
W
SciTegic.value.DoubleValue
-58.148

@<SCITEGIC>MOL_PROPERTY
W(PB)
SciTegic.value.DoubleValue
-60.054

@<SCITEGIC>MOL_PROPERTY
W(SA)
SciTegic.value.DoubleValue
1.906

@<SCITEGIC>MOL_PROPERTY
Valence
SciTegic.value.DoubleValue
2.039

@<SCITEGIC>MOL_PROPERTY
Coulomb
SciTegic.value.DoubleValue
44.655

@<SCITEGIC>MOL_PROPERTY
VdW
SciTegic.value.DoubleValue
0.383

@<SCITEGIC>MOL_PROPERTY
VdW6
SciTegic.value.DoubleValue
-4.912

@<SCITEGIC>MOL_PROPERTY
VdW12
SciTegic.value.DoubleValue
5.295

@<SCITEGIC>MOL_PROPERTY
Bond
SciTegic.value.DoubleValue
0.159

@<SCITEGIC>MOL_PROPERTY
Angle
SciTegic.value.DoubleValue
0.856

@<SCITEGIC>MOL_PROPERTY
Pdih
SciTegic.value.DoubleValue
1.024

@<SCITEGIC>MOL_PROPERTY
Idih
SciTegic.value.DoubleValue
0.000

@<SCITEGIC>MOL_PROPERTY
Tether
SciTegic.value.DoubleValue
0.000

@<TRIPOS>MOLECULE
guest-s11_confgen4.mol2 : confsearch ligand conformer 903
          20          19           1
SMALL
USER_CHARGES
 
@<TRIPOS>ATOM
       1    N1      20.996797   16.646161   23.522903 N.4        1 MOL1        -0.5919
       2    H1      21.300268   16.683160   24.501087 H          1 MOL1         0.3682
       3    H2      20.033101   16.297592   23.519470 H          1 MOL1         0.3682
       4    H3      21.572172   15.934670   23.060072 H          1 MOL1         0.3682
       5    C1      21.113804   17.995102   22.842466 C.3        1 MOL1         0.0252
       6    H4      20.804339   17.873851   21.801065 H          1 MOL1         0.0971
       7    H5      22.166347   18.290632   22.856433 H          1 MOL1         0.0971
       8    C2      20.260222   19.087594   23.513643 C.3        1 MOL1        -0.1369
       9    H6      19.204518   18.787734   23.508351 H          1 MOL1         0.0997
      10    H7      20.550644   19.172130   24.569232 H          1 MOL1         0.0997
      11    C3      20.420989   20.472889   22.839026 C.3        1 MOL1        -0.1329
      12    H8      21.458404   20.812571   22.965040 H          1 MOL1         0.0997
      13    H9      19.797251   21.203411   23.372460 H          1 MOL1         0.0997
      14    C4      20.064624   20.507662   21.330709 C.3        1 MOL1        -0.1305
      15    H10     20.232079   21.526719   20.954722 H          1 MOL1         0.0997
      16    H11     20.748967   19.861723   20.763953 H          1 MOL1         0.0997
      17    C5      18.602712   20.102125   21.035142 C.3        1 MOL1        -0.2320
      18    H12     17.898175   20.720372   21.606433 H          1 MOL1         0.1008
      19    H13     18.375551   20.232653   19.969184 H          1 MOL1         0.1008
      20    H14     18.418254   19.049881   21.284930 H          1 MOL1         0.1008
@<TRIPOS>BOND
    1     1     2    1
    2     1     3    1
    3     1     4    1
    4     1     5    1
    5     5     6    1
    6     5     7    1
    7     5     8    1
    8     8     9    1
    9     8    10    1
   10     8    11    1
   11    11    12    1
   12    11    13    1
   13    11    14    1
   14    14    15    1
   15    14    16    1
   16    14    17    1
   17    17    18    1
   18    17    19    1
   19    17    20    1
@<TRIPOS>SUBSTRUCTURE
       1 MOL1            1 RESIDUE      1      MOL     
@<SCITEGIC>MOL_PROPERTY
VConf Rank
SciTegic.value.IntegerValue
903

@<SCITEGIC>MOL_PROPERTY
Conf_Id
SciTegic.value.IntegerValue
22

@<SCITEGIC>MOL_PROPERTY
Delta U+W
SciTegic.value.DoubleValue
0.731

@<SCITEGIC>MOL_PROPERTY
U+W
SciTegic.value.DoubleValue
-11.047

@<SCITEGIC>MOL_PROPERTY
Grad RMS
SciTegic.value.DoubleValue
0.000000

@<SCITEGIC>MOL_PROPERTY
U
SciTegic.value.DoubleValue
47.078

@<SCITEGIC>MOL_PROPERTY
W
SciTegic.value.DoubleValue
-58.125

@<SCITEGIC>MOL_PROPERTY
W(PB)
SciTegic.value.DoubleValue
-60.031

@<SCITEGIC>MOL_PROPERTY
W(SA)
SciTegic.value.DoubleValue
1.906

@<SCITEGIC>MOL_PROPERTY
Valence
SciTegic.value.DoubleValue
2.039

@<SCITEGIC>MOL_PROPERTY
Coulomb
SciTegic.value.DoubleValue
44.655

@<SCITEGIC>MOL_PROPERTY
VdW
SciTegic.value.DoubleValue
0.383

@<SCITEGIC>MOL_PROPERTY
VdW6
SciTegic.value.DoubleValue
-4.913

@<SCITEGIC>MOL_PROPERTY
VdW12
SciTegic.value.DoubleValue
5.296

@<SCITEGIC>MOL_PROPERTY
Bond
SciTegic.value.DoubleValue
0.159

@<SCITEGIC>MOL_PROPERTY
Angle
SciTegic.value.DoubleValue
0.856

@<SCITEGIC>MOL_PROPERTY
Pdih
SciTegic.value.DoubleValue
1.024

@<SCITEGIC>MOL_PROPERTY
Idih
SciTegic.value.DoubleValue
0.000

@<SCITEGIC>MOL_PROPERTY
Tether
SciTegic.value.DoubleValue
0.000

@<TRIPOS>MOLECULE
guest-s11_confgen4.mol2 : confsearch ligand conformer 904
          20          19           1
SMALL
USER_CHARGES
 
@<TRIPOS>ATOM
       1    N1      22.248472   19.246628   24.297698 N.4        1 MOL1        -0.5919
       2    H1      22.775545   18.408605   24.032656 H          1 MOL1         0.3682
       3    H2      22.873093   20.048706   24.167970 H          1 MOL1         0.3682
       4    H3      22.062024   19.174979   25.303480 H          1 MOL1         0.3682
       5    C1      20.970117   19.388765   23.496314 C.3        1 MOL1         0.0252
       6    H4      20.447971   20.282716   23.847896 H          1 MOL1         0.0971
       7    H5      20.347477   18.516515   23.707896 H          1 MOL1         0.0971
       8    C2      21.215752   19.493188   21.980587 C.3        1 MOL1        -0.1369
       9    H6      21.937838   20.299390   21.794703 H          1 MOL1         0.0997
      10    H7      21.685390   18.567732   21.621760 H          1 MOL1         0.0997
      11    C3      19.936051   19.781049   21.155108 C.3        1 MOL1        -0.1329
      12    H8      20.243326   19.924887   20.109907 H          1 MOL1         0.0997
      13    H9      19.490591   20.735763   21.467257 H          1 MOL1         0.0997
      14    C4      18.869395   18.655787   21.190059 C.3        1 MOL1        -0.1305
      15    H10     18.298359   18.692896   20.251633 H          1 MOL1         0.0997
      16    H11     19.355259   17.670221   21.208403 H          1 MOL1         0.0997
      17    C5      17.864626   18.780432   22.359562 C.3        1 MOL1        -0.2320
      18    H12     18.345904   18.661309   23.335808 H          1 MOL1         0.1008
      19    H13     17.361735   19.756071   22.344335 H          1 MOL1         0.1008
      20    H14     17.089685   18.006971   22.280761 H          1 MOL1         0.1008
@<TRIPOS>BOND
    1     1     2    1
    2     1     3    1
    3     1     4    1
    4     1     5    1
    5     5     6    1
    6     5     7    1
    7     5     8    1
    8     8     9    1
    9     8    10    1
   10     8    11    1
   11    11    12    1
   12    11    13    1
   13    11    14    1
   14    14    15    1
   15    14    16    1
   16    14    17    1
   17    17    18    1
   18    17    19    1
   19    17    20    1
@<TRIPOS>SUBSTRUCTURE
       1 MOL1            1 RESIDUE      1      MOL     
@<SCITEGIC>MOL_PROPERTY
VConf Rank
SciTegic.value.IntegerValue
904

@<SCITEGIC>MOL_PROPERTY
Conf_Id
SciTegic.value.IntegerValue
61

@<SCITEGIC>MOL_PROPERTY
Delta U+W
SciTegic.value.DoubleValue
2.669

@<SCITEGIC>MOL_PROPERTY
U+W
SciTegic.value.DoubleValue
-9.108

@<SCITEGIC>MOL_PROPERTY
Grad RMS
SciTegic.value.DoubleValue
0.000000

@<SCITEGIC>MOL_PROPERTY
U
SciTegic.value.DoubleValue
48.916

@<SCITEGIC>MOL_PROPERTY
W
SciTegic.value.DoubleValue
-58.025

@<SCITEGIC>MOL_PROPERTY
W(PB)
SciTegic.value.DoubleValue
-59.935

@<SCITEGIC>MOL_PROPERTY
W(SA)
SciTegic.value.DoubleValue
1.911

@<SCITEGIC>MOL_PROPERTY
Valence
SciTegic.value.DoubleValue
3.785

@<SCITEGIC>MOL_PROPERTY
Coulomb
SciTegic.value.DoubleValue
44.716

@<SCITEGIC>MOL_PROPERTY
VdW
SciTegic.value.DoubleValue
0.415

@<SCITEGIC>MOL_PROPERTY
VdW6
SciTegic.value.DoubleValue
-4.836

@<SCITEGIC>MOL_PROPERTY
VdW12
SciTegic.value.DoubleValue
5.251

@<SCITEGIC>MOL_PROPERTY
Bond
SciTegic.value.DoubleValue
0.175

@<SCITEGIC>MOL_PROPERTY
Angle
SciTegic.value.DoubleValue
1.195

@<SCITEGIC>MOL_PROPERTY
Pdih
SciTegic.value.DoubleValue
2.415

@<SCITEGIC>MOL_PROPERTY
Idih
SciTegic.value.DoubleValue
0.000

@<SCITEGIC>MOL_PROPERTY
Tether
SciTegic.value.DoubleValue
0.000

@<TRIPOS>MOLECULE
guest-s11_confgen4.mol2 : confsearch ligand conformer 905
          20          19           1
SMALL
USER_CHARGES
 
@<TRIPOS>ATOM
       1    N1      19.683856   21.010506   23.525048 N.4        1 MOL1        -0.5919
       2    H1      19.628865   22.030283   23.431919 H          1 MOL1         0.3682
       3    H2      19.539421   20.795125   24.516537 H          1 MOL1         0.3682
       4    H3      20.642828   20.738861   23.293517 H          1 MOL1         0.3682
       5    C1      18.667460   20.310340   22.643414 C.3        1 MOL1         0.0252
       6    H4      18.831578   20.620485   21.607937 H          1 MOL1         0.0971
       7    H5      17.680661   20.667344   22.950557 H          1 MOL1         0.0971
       8    C2      18.695081   18.770397   22.739786 C.3        1 MOL1        -0.1369
       9    H6      18.803436   18.460592   23.787687 H          1 MOL1         0.0997
      10    H7      17.713880   18.398311   22.416260 H          1 MOL1         0.0997
      11    C3      19.774515   18.088578   21.860177 C.3        1 MOL1        -0.1329
      12    H8      19.616072   18.362744   20.807943 H          1 MOL1         0.0997
      13    H9      19.625589   17.001399   21.918000 H          1 MOL1         0.0997
      14    C4      21.231352   18.414984   22.264400 C.3        1 MOL1        -0.1305
      15    H10     21.447360   19.473105   22.070566 H          1 MOL1         0.0997
      16    H11     21.367553   18.244589   23.341599 H          1 MOL1         0.0997
      17    C5      22.245173   17.554890   21.479911 C.3        1 MOL1        -0.2320
      18    H12     23.273543   17.805291   21.771128 H          1 MOL1         0.1008
      19    H13     22.091747   16.485540   21.675294 H          1 MOL1         0.1008
      20    H14     22.151326   17.721669   20.398871 H          1 MOL1         0.1008
@<TRIPOS>BOND
    1     1     2    1
    2     1     3    1
    3     1     4    1
    4     1     5    1
    5     5     6    1
    6     5     7    1
    7     5     8    1
    8     8     9    1
    9     8    10    1
   10     8    11    1
   11    11    12    1
   12    11    13    1
   13    11    14    1
   14    14    15    1
   15    14    16    1
   16    14    17    1
   17    17    18    1
   18    17    19    1
   19    17    20    1
@<TRIPOS>SUBSTRUCTURE
       1 MOL1            1 RESIDUE      1      MOL     
@<SCITEGIC>MOL_PROPERTY
VConf Rank
SciTegic.value.IntegerValue
905

@<SCITEGIC>MOL_PROPERTY
Conf_Id
SciTegic.value.IntegerValue
69

@<SCITEGIC>MOL_PROPERTY
Delta U+W
SciTegic.value.DoubleValue
2.811

@<SCITEGIC>MOL_PROPERTY
U+W
SciTegic.value.DoubleValue
-8.967

@<SCITEGIC>MOL_PROPERTY
Grad RMS
SciTegic.value.DoubleValue
0.000000

@<SCITEGIC>MOL_PROPERTY
U
SciTegic.value.DoubleValue
49.216

@<SCITEGIC>MOL_PROPERTY
W
SciTegic.value.DoubleValue
-58.183

@<SCITEGIC>MOL_PROPERTY
W(PB)
SciTegic.value.DoubleValue
-60.064

@<SCITEGIC>MOL_PROPERTY
W(SA)
SciTegic.value.DoubleValue
1.881

@<SCITEGIC>MOL_PROPERTY
Valence
SciTegic.value.DoubleValue
2.929

@<SCITEGIC>MOL_PROPERTY
Coulomb
SciTegic.value.DoubleValue
46.006

@<SCITEGIC>MOL_PROPERTY
VdW
SciTegic.value.DoubleValue
0.281

@<SCITEGIC>MOL_PROPERTY
VdW6
SciTegic.value.DoubleValue
-4.909

@<SCITEGIC>MOL_PROPERTY
VdW12
SciTegic.value.DoubleValue
5.190

@<SCITEGIC>MOL_PROPERTY
Bond
SciTegic.value.DoubleValue
0.156

@<SCITEGIC>MOL_PROPERTY
Angle
SciTegic.value.DoubleValue
0.974

@<SCITEGIC>MOL_PROPERTY
Pdih
SciTegic.value.DoubleValue
1.799

@<SCITEGIC>MOL_PROPERTY
Idih
SciTegic.value.DoubleValue
0.000

@<SCITEGIC>MOL_PROPERTY
Tether
SciTegic.value.DoubleValue
0.000

@<TRIPOS>MOLECULE
guest-s11_confgen4.mol2 : confsearch ligand conformer 906
          20          19           1
SMALL
USER_CHARGES
 
@<TRIPOS>ATOM
       1    N1      18.921775   19.868440   20.571488 N.4        1 MOL1        -0.5919
       2    H1      19.695105   20.418002   20.954857 H          1 MOL1         0.3682
       3    H2      19.284719   19.362075   19.757750 H          1 MOL1         0.3682
       4    H3      18.224675   20.533552   20.220316 H          1 MOL1         0.3682
       5    C1      18.329856   18.926255   21.602259 C.3        1 MOL1         0.0252
       6    H4      17.509682   18.394101   21.112683 H          1 MOL1         0.0971
       7    H5      17.907928   19.521068   22.416822 H          1 MOL1         0.0971
       8    C2      19.328079   17.894912   22.169146 C.3        1 MOL1        -0.1369
       9    H6      18.747556   17.048092   22.558708 H          1 MOL1         0.0997
      10    H7      19.948429   17.487177   21.359990 H          1 MOL1         0.0997
      11    C3      20.221242   18.426849   23.319396 C.3        1 MOL1        -0.1329
      12    H8      20.802386   17.583916   23.718413 H          1 MOL1         0.0997
      13    H9      19.585586   18.776984   24.144509 H          1 MOL1         0.0997
      14    C4      21.196368   19.553884   22.905590 C.3        1 MOL1        -0.1305
      15    H10     21.760854   19.250682   22.012635 H          1 MOL1         0.0997
      16    H11     20.635174   20.460229   22.645878 H          1 MOL1         0.0997
      17    C5      22.184175   19.896259   24.041387 C.3        1 MOL1        -0.2320
      18    H12     22.797434   19.025699   24.308335 H          1 MOL1         0.1008
      19    H13     22.862218   20.703570   23.735512 H          1 MOL1         0.1008
      20    H14     21.650831   20.227637   24.941944 H          1 MOL1         0.1008
@<TRIPOS>BOND
    1     1     2    1
    2     1     3    1
    3     1     4    1
    4     1     5    1
    5     5     6    1
    6     5     7    1
    7     5     8    1
    8     8     9    1
    9     8    10    1
   10     8    11    1
   11    11    12    1
   12    11    13    1
   13    11    14    1
   14    14    15    1
   15    14    16    1
   16    14    17    1
   17    17    18    1
   18    17    19    1
   19    17    20    1
@<TRIPOS>SUBSTRUCTURE
       1 MOL1            1 RESIDUE      1      MOL     
@<SCITEGIC>MOL_PROPERTY
VConf Rank
SciTegic.value.IntegerValue
906

@<SCITEGIC>MOL_PROPERTY
Conf_Id
SciTegic.value.IntegerValue
26

@<SCITEGIC>MOL_PROPERTY
Delta U+W
SciTegic.value.DoubleValue
2.809

@<SCITEGIC>MOL_PROPERTY
U+W
SciTegic.value.DoubleValue
-8.969

@<SCITEGIC>MOL_PROPERTY
Grad RMS
SciTegic.value.DoubleValue
0.000000

@<SCITEGIC>MOL_PROPERTY
U
SciTegic.value.DoubleValue
49.216

@<SCITEGIC>MOL_PROPERTY
W
SciTegic.value.DoubleValue
-58.185

@<SCITEGIC>MOL_PROPERTY
W(PB)
SciTegic.value.DoubleValue
-60.088

@<SCITEGIC>MOL_PROPERTY
W(SA)
SciTegic.value.DoubleValue
1.903

@<SCITEGIC>MOL_PROPERTY
Valence
SciTegic.value.DoubleValue
2.929

@<SCITEGIC>MOL_PROPERTY
Coulomb
SciTegic.value.DoubleValue
46.006

@<SCITEGIC>MOL_PROPERTY
VdW
SciTegic.value.DoubleValue
0.281

@<SCITEGIC>MOL_PROPERTY
VdW6
SciTegic.value.DoubleValue
-4.909

@<SCITEGIC>MOL_PROPERTY
VdW12
SciTegic.value.DoubleValue
5.190

@<SCITEGIC>MOL_PROPERTY
Bond
SciTegic.value.DoubleValue
0.156

@<SCITEGIC>MOL_PROPERTY
Angle
SciTegic.value.DoubleValue
0.974

@<SCITEGIC>MOL_PROPERTY
Pdih
SciTegic.value.DoubleValue
1.799

@<SCITEGIC>MOL_PROPERTY
Idih
SciTegic.value.DoubleValue
0.000

@<SCITEGIC>MOL_PROPERTY
Tether
SciTegic.value.DoubleValue
0.000

@<TRIPOS>MOLECULE
guest-s11_confgen4.mol2 : confsearch ligand conformer 907
          20          19           1
SMALL
USER_CHARGES
 
@<TRIPOS>ATOM
       1    N1      20.906117   16.890191   22.267082 N.4        1 MOL1        -0.5919
       2    H1      20.602204   17.022745   23.236104 H          1 MOL1         0.3682
       3    H2      20.266898   16.213170   21.839203 H          1 MOL1         0.3682
       4    H3      21.830743   16.448250   22.299707 H          1 MOL1         0.3682
       5    C1      20.933778   18.199900   21.503606 C.3        1 MOL1         0.0252
       6    H4      21.294783   17.988884   20.493331 H          1 MOL1         0.0971
       7    H5      21.655177   18.861709   21.989944 H          1 MOL1         0.0971
       8    C2      19.561208   18.898142   21.421115 C.3        1 MOL1        -0.1369
       9    H6      19.656150   19.791686   20.790959 H          1 MOL1         0.0997
      10    H7      18.853532   18.239012   20.901134 H          1 MOL1         0.0997
      11    C3      18.971198   19.293916   22.800334 C.3        1 MOL1        -0.1329
      12    H8      18.725605   18.384534   23.365061 H          1 MOL1         0.0997
      13    H9      18.015120   19.811189   22.640514 H          1 MOL1         0.0997
      14    C4      19.891018   20.190655   23.667987 C.3        1 MOL1        -0.1305
      15    H10     19.386331   20.389695   24.623773 H          1 MOL1         0.0997
      16    H11     20.815691   19.654670   23.921357 H          1 MOL1         0.0997
      17    C5      20.239862   21.539662   22.999160 C.3        1 MOL1        -0.2320
      18    H12     19.331158   22.088804   22.720479 H          1 MOL1         0.1008
      19    H13     20.816379   22.172006   23.686659 H          1 MOL1         0.1008
      20    H14     20.845920   21.396572   22.095932 H          1 MOL1         0.1008
@<TRIPOS>BOND
    1     1     2    1
    2     1     3    1
    3     1     4    1
    4     1     5    1
    5     5     6    1
    6     5     7    1
    7     5     8    1
    8     8     9    1
    9     8    10    1
   10     8    11    1
   11    11    12    1
   12    11    13    1
   13    11    14    1
   14    14    15    1
   15    14    16    1
   16    14    17    1
   17    17    18    1
   18    17    19    1
   19    17    20    1
@<TRIPOS>SUBSTRUCTURE
       1 MOL1            1 RESIDUE      1      MOL     
@<SCITEGIC>MOL_PROPERTY
VConf Rank
SciTegic.value.IntegerValue
907

@<SCITEGIC>MOL_PROPERTY
Conf_Id
SciTegic.value.IntegerValue
2

@<SCITEGIC>MOL_PROPERTY
Delta U+W
SciTegic.value.DoubleValue
0.994

@<SCITEGIC>MOL_PROPERTY
U+W
SciTegic.value.DoubleValue
-10.784

@<SCITEGIC>MOL_PROPERTY
Grad RMS
SciTegic.value.DoubleValue
0.000000

@<SCITEGIC>MOL_PROPERTY
U
SciTegic.value.DoubleValue
47.562

@<SCITEGIC>MOL_PROPERTY
W
SciTegic.value.DoubleValue
-58.346

@<SCITEGIC>MOL_PROPERTY
W(PB)
SciTegic.value.DoubleValue
-60.221

@<SCITEGIC>MOL_PROPERTY
W(SA)
SciTegic.value.DoubleValue
1.875

@<SCITEGIC>MOL_PROPERTY
Valence
SciTegic.value.DoubleValue
2.149

@<SCITEGIC>MOL_PROPERTY
Coulomb
SciTegic.value.DoubleValue
45.034

@<SCITEGIC>MOL_PROPERTY
VdW
SciTegic.value.DoubleValue
0.378

@<SCITEGIC>MOL_PROPERTY
VdW6
SciTegic.value.DoubleValue
-5.599

@<SCITEGIC>MOL_PROPERTY
VdW12
SciTegic.value.DoubleValue
5.977

@<SCITEGIC>MOL_PROPERTY
Bond
SciTegic.value.DoubleValue
0.185

@<SCITEGIC>MOL_PROPERTY
Angle
SciTegic.value.DoubleValue
0.935

@<SCITEGIC>MOL_PROPERTY
Pdih
SciTegic.value.DoubleValue
1.028

@<SCITEGIC>MOL_PROPERTY
Idih
SciTegic.value.DoubleValue
0.000

@<SCITEGIC>MOL_PROPERTY
Tether
SciTegic.value.DoubleValue
0.000

@<TRIPOS>MOLECULE
guest-s11_confgen4.mol2 : confsearch ligand conformer 908
          20          19           1
SMALL
USER_CHARGES
 
@<TRIPOS>ATOM
       1    N1      18.852901   19.613087   24.420908 N.4        1 MOL1        -0.5919
       2    H1      17.834873   19.533156   24.335656 H          1 MOL1         0.3682
       3    H2      19.220752   18.666453   24.553238 H          1 MOL1         0.3682
       4    H3      19.040163   20.132007   25.285179 H          1 MOL1         0.3682
       5    C1      19.468443   20.290305   23.211991 C.3        1 MOL1         0.0252
       6    H4      20.545297   20.373460   23.380525 H          1 MOL1         0.0971
       7    H5      19.055915   21.301018   23.150451 H          1 MOL1         0.0971
       8    C2      19.205678   19.548717   21.885610 C.3        1 MOL1        -0.1369
       9    H6      18.122979   19.500671   21.709275 H          1 MOL1         0.0997
      10    H7      19.617109   20.143615   21.060168 H          1 MOL1         0.0997
      11    C3      19.794818   18.114276   21.837788 C.3        1 MOL1        -0.1329
      12    H8      19.588435   17.680149   20.849791 H          1 MOL1         0.0997
      13    H9      19.262604   17.478581   22.558097 H          1 MOL1         0.0997
      14    C4      21.316677   18.026600   22.119383 C.3        1 MOL1        -0.1305
      15    H10     21.534762   18.366569   23.140830 H          1 MOL1         0.0997
      16    H11     21.619988   16.970931   22.081757 H          1 MOL1         0.0997
      17    C5      22.173563   18.826680   21.112180 C.3        1 MOL1        -0.2320
      18    H12     21.987828   19.904933   21.192645 H          1 MOL1         0.1008
      19    H13     23.242327   18.661013   21.299758 H          1 MOL1         0.1008
      20    H14     21.962098   18.517055   20.080495 H          1 MOL1         0.1008
@<TRIPOS>BOND
    1     1     2    1
    2     1     3    1
    3     1     4    1
    4     1     5    1
    5     5     6    1
    6     5     7    1
    7     5     8    1
    8     8     9    1
    9     8    10    1
   10     8    11    1
   11    11    12    1
   12    11    13    1
   13    11    14    1
   14    14    15    1
   15    14    16    1
   16    14    17    1
   17    17    18    1
   18    17    19    1
   19    17    20    1
@<TRIPOS>SUBSTRUCTURE
       1 MOL1            1 RESIDUE      1      MOL     
@<SCITEGIC>MOL_PROPERTY
VConf Rank
SciTegic.value.IntegerValue
908

@<SCITEGIC>MOL_PROPERTY
Conf_Id
SciTegic.value.IntegerValue
1

@<SCITEGIC>MOL_PROPERTY
Delta U+W
SciTegic.value.DoubleValue
1.032

@<SCITEGIC>MOL_PROPERTY
U+W
SciTegic.value.DoubleValue
-10.746

@<SCITEGIC>MOL_PROPERTY
Grad RMS
SciTegic.value.DoubleValue
0.000000

@<SCITEGIC>MOL_PROPERTY
U
SciTegic.value.DoubleValue
47.562

@<SCITEGIC>MOL_PROPERTY
W
SciTegic.value.DoubleValue
-58.308

@<SCITEGIC>MOL_PROPERTY
W(PB)
SciTegic.value.DoubleValue
-60.184

@<SCITEGIC>MOL_PROPERTY
W(SA)
SciTegic.value.DoubleValue
1.877

@<SCITEGIC>MOL_PROPERTY
Valence
SciTegic.value.DoubleValue
2.149

@<SCITEGIC>MOL_PROPERTY
Coulomb
SciTegic.value.DoubleValue
45.035

@<SCITEGIC>MOL_PROPERTY
VdW
SciTegic.value.DoubleValue
0.378

@<SCITEGIC>MOL_PROPERTY
VdW6
SciTegic.value.DoubleValue
-5.599

@<SCITEGIC>MOL_PROPERTY
VdW12
SciTegic.value.DoubleValue
5.978

@<SCITEGIC>MOL_PROPERTY
Bond
SciTegic.value.DoubleValue
0.185

@<SCITEGIC>MOL_PROPERTY
Angle
SciTegic.value.DoubleValue
0.935

@<SCITEGIC>MOL_PROPERTY
Pdih
SciTegic.value.DoubleValue
1.028

@<SCITEGIC>MOL_PROPERTY
Idih
SciTegic.value.DoubleValue
0.000

@<SCITEGIC>MOL_PROPERTY
Tether
SciTegic.value.DoubleValue
0.000

@<TRIPOS>MOLECULE
guest-s11_confgen4.mol2 : confsearch ligand conformer 909
          20          19           1
SMALL
USER_CHARGES
 
@<TRIPOS>ATOM
       1    N1      20.959995   17.299244   21.211676 N.4        1 MOL1        -0.5919
       2    H1      21.320483   16.470221   21.694232 H          1 MOL1         0.3682
       3    H2      19.938172   17.262065   21.268062 H          1 MOL1         0.3682
       4    H3      21.208976   17.199804   20.221997 H          1 MOL1         0.3682
       5    C1      21.510875   18.581671   21.804693 C.3        1 MOL1         0.0252
       6    H4      21.112806   19.417325   21.226988 H          1 MOL1         0.0971
       7    H5      22.595793   18.566351   21.669623 H          1 MOL1         0.0971
       8    C2      21.190366   18.763603   23.303656 C.3        1 MOL1        -0.1369
       9    H6      21.597811   17.900148   23.846108 H          1 MOL1         0.0997
      10    H7      21.729022   19.640319   23.686851 H          1 MOL1         0.0997
      11    C3      19.679085   18.896034   23.633526 C.3        1 MOL1        -0.1329
      12    H8      19.536643   18.601170   24.682425 H          1 MOL1         0.0997
      13    H9      19.090183   18.179650   23.046403 H          1 MOL1         0.0997
      14    C4      19.093831   20.322509   23.470187 C.3        1 MOL1        -0.1305
      15    H10     18.051579   20.309026   23.818723 H          1 MOL1         0.0997
      16    H11     19.625350   21.019415   24.133204 H          1 MOL1         0.0997
      17    C5      19.120459   20.867159   22.024996 C.3        1 MOL1        -0.2320
      18    H12     18.698330   20.142025   21.317361 H          1 MOL1         0.1008
      19    H13     18.528430   21.788735   21.953374 H          1 MOL1         0.1008
      20    H14     20.141096   21.114288   21.709906 H          1 MOL1         0.1008
@<TRIPOS>BOND
    1     1     2    1
    2     1     3    1
    3     1     4    1
    4     1     5    1
    5     5     6    1
    6     5     7    1
    7     5     8    1
    8     8     9    1
    9     8    10    1
   10     8    11    1
   11    11    12    1
   12    11    13    1
   13    11    14    1
   14    14    15    1
   15    14    16    1
   16    14    17    1
   17    17    18    1
   18    17    19    1
   19    17    20    1
@<TRIPOS>SUBSTRUCTURE
       1 MOL1            1 RESIDUE      1      MOL     
@<SCITEGIC>MOL_PROPERTY
VConf Rank
SciTegic.value.IntegerValue
909

@<SCITEGIC>MOL_PROPERTY
Conf_Id
SciTegic.value.IntegerValue
80

@<SCITEGIC>MOL_PROPERTY
Delta U+W
SciTegic.value.DoubleValue
2.920

@<SCITEGIC>MOL_PROPERTY
U+W
SciTegic.value.DoubleValue
-8.857

@<SCITEGIC>MOL_PROPERTY
Grad RMS
SciTegic.value.DoubleValue
0.000000

@<SCITEGIC>MOL_PROPERTY
U
SciTegic.value.DoubleValue
49.434

@<SCITEGIC>MOL_PROPERTY
W
SciTegic.value.DoubleValue
-58.292

@<SCITEGIC>MOL_PROPERTY
W(PB)
SciTegic.value.DoubleValue
-60.170

@<SCITEGIC>MOL_PROPERTY
W(SA)
SciTegic.value.DoubleValue
1.879

@<SCITEGIC>MOL_PROPERTY
Valence
SciTegic.value.DoubleValue
3.798

@<SCITEGIC>MOL_PROPERTY
Coulomb
SciTegic.value.DoubleValue
45.253

@<SCITEGIC>MOL_PROPERTY
VdW
SciTegic.value.DoubleValue
0.384

@<SCITEGIC>MOL_PROPERTY
VdW6
SciTegic.value.DoubleValue
-5.595

@<SCITEGIC>MOL_PROPERTY
VdW12
SciTegic.value.DoubleValue
5.979

@<SCITEGIC>MOL_PROPERTY
Bond
SciTegic.value.DoubleValue
0.198

@<SCITEGIC>MOL_PROPERTY
Angle
SciTegic.value.DoubleValue
1.368

@<SCITEGIC>MOL_PROPERTY
Pdih
SciTegic.value.DoubleValue
2.231

@<SCITEGIC>MOL_PROPERTY
Idih
SciTegic.value.DoubleValue
0.000

@<SCITEGIC>MOL_PROPERTY
Tether
SciTegic.value.DoubleValue
0.000

@<TRIPOS>MOLECULE
guest-s11_confgen4.mol2 : confsearch ligand conformer 910
          20          19           1
SMALL
USER_CHARGES
 
@<TRIPOS>ATOM
       1    N1      21.255801   18.040717   24.214267 N.4        1 MOL1        -0.5919
       2    H1      21.081853   18.329982   25.181820 H          1 MOL1         0.3682
       3    H2      21.722284   17.128542   24.255216 H          1 MOL1         0.3682
       4    H3      21.928222   18.702768   23.816491 H          1 MOL1         0.3682
       5    C1      19.975429   17.982384   23.403710 C.3        1 MOL1         0.0252
       6    H4      19.330155   17.228573   23.862962 H          1 MOL1         0.0971
       7    H5      20.228795   17.639887   22.399211 H          1 MOL1         0.0971
       8    C2      19.217057   19.325261   23.338275 C.3        1 MOL1        -0.1369
       9    H6      18.245686   19.170859   22.850202 H          1 MOL1         0.0997
      10    H7      18.990249   19.638516   24.366015 H          1 MOL1         0.0997
      11    C3      19.983296   20.469997   22.622187 C.3        1 MOL1        -0.1329
      12    H8      21.041265   20.470058   22.914458 H          1 MOL1         0.0997
      13    H9      19.579379   21.424631   22.986809 H          1 MOL1         0.0997
      14    C4      19.860790   20.475793   21.076547 C.3        1 MOL1        -0.1305
      15    H10     18.804586   20.572718   20.788762 H          1 MOL1         0.0997
      16    H11     20.362039   21.376344   20.694836 H          1 MOL1         0.0997
      17    C5      20.472213   19.241161   20.378139 C.3        1 MOL1        -0.2320
      18    H12     19.864674   18.344423   20.547870 H          1 MOL1         0.1008
      19    H13     20.517401   19.399816   19.292913 H          1 MOL1         0.1008
      20    H14     21.493356   19.047817   20.731190 H          1 MOL1         0.1008
@<TRIPOS>BOND
    1     1     2    1
    2     1     3    1
    3     1     4    1
    4     1     5    1
    5     5     6    1
    6     5     7    1
    7     5     8    1
    8     8     9    1
    9     8    10    1
   10     8    11    1
   11    11    12    1
   12    11    13    1
   13    11    14    1
   14    14    15    1
   15    14    16    1
   16    14    17    1
   17    17    18    1
   18    17    19    1
   19    17    20    1
@<TRIPOS>SUBSTRUCTURE
       1 MOL1            1 RESIDUE      1      MOL     
@<SCITEGIC>MOL_PROPERTY
VConf Rank
SciTegic.value.IntegerValue
910

@<SCITEGIC>MOL_PROPERTY
Conf_Id
SciTegic.value.IntegerValue
65

@<SCITEGIC>MOL_PROPERTY
Delta U+W
SciTegic.value.DoubleValue
2.949

@<SCITEGIC>MOL_PROPERTY
U+W
SciTegic.value.DoubleValue
-8.829

@<SCITEGIC>MOL_PROPERTY
Grad RMS
SciTegic.value.DoubleValue
0.000000

@<SCITEGIC>MOL_PROPERTY
U
SciTegic.value.DoubleValue
49.435

@<SCITEGIC>MOL_PROPERTY
W
SciTegic.value.DoubleValue
-58.263

@<SCITEGIC>MOL_PROPERTY
W(PB)
SciTegic.value.DoubleValue
-60.125

@<SCITEGIC>MOL_PROPERTY
W(SA)
SciTegic.value.DoubleValue
1.862

@<SCITEGIC>MOL_PROPERTY
Valence
SciTegic.value.DoubleValue
3.797

@<SCITEGIC>MOL_PROPERTY
Coulomb
SciTegic.value.DoubleValue
45.253

@<SCITEGIC>MOL_PROPERTY
VdW
SciTegic.value.DoubleValue
0.384

@<SCITEGIC>MOL_PROPERTY
VdW6
SciTegic.value.DoubleValue
-5.596

@<SCITEGIC>MOL_PROPERTY
VdW12
SciTegic.value.DoubleValue
5.980

@<SCITEGIC>MOL_PROPERTY
Bond
SciTegic.value.DoubleValue
0.198

@<SCITEGIC>MOL_PROPERTY
Angle
SciTegic.value.DoubleValue
1.369

@<SCITEGIC>MOL_PROPERTY
Pdih
SciTegic.value.DoubleValue
2.230

@<SCITEGIC>MOL_PROPERTY
Idih
SciTegic.value.DoubleValue
0.000

@<SCITEGIC>MOL_PROPERTY
Tether
SciTegic.value.DoubleValue
0.000

@<TRIPOS>MOLECULE
guest-s11_confgen4.mol2 : confsearch ligand conformer 911
          20          19           1
SMALL
USER_CHARGES
 
@<TRIPOS>ATOM
       1    N1      19.866048   21.013491   21.644418 N.4        1 MOL1        -0.5919
       2    H1      20.266485   21.560065   20.874620 H          1 MOL1         0.3682
       3    H2      19.450655   20.170148   21.237053 H          1 MOL1         0.3682
       4    H3      19.101279   21.570218   22.038866 H          1 MOL1         0.3682
       5    C1      20.907339   20.666943   22.690923 C.3        1 MOL1         0.0252
       6    H4      21.299263   21.611963   23.076736 H          1 MOL1         0.0971
       7    H5      21.728161   20.132393   22.205427 H          1 MOL1         0.0971
       8    C2      20.360596   19.831446   23.866264 C.3        1 MOL1        -0.1369
       9    H6      21.027055   19.987572   24.724907 H          1 MOL1         0.0997
      10    H7      19.380957   20.220058   24.174642 H          1 MOL1         0.0997
      11    C3      20.272931   18.303392   23.606984 C.3        1 MOL1        -0.1329
      12    H8      19.923880   17.832353   24.536399 H          1 MOL1         0.0997
      13    H9      21.277858   17.895157   23.431113 H          1 MOL1         0.0997
      14    C4      19.317393   17.875163   22.464142 C.3        1 MOL1        -0.1305
      15    H10     18.839413   16.925966   22.744888 H          1 MOL1         0.0997
      16    H11     18.497392   18.598004   22.357550 H          1 MOL1         0.0997
      17    C5      20.042762   17.657860   21.114906 C.3        1 MOL1        -0.2320
      18    H12     20.607453   18.540234   20.795316 H          1 MOL1         0.1008
      19    H13     20.751791   16.822849   21.188086 H          1 MOL1         0.1008
      20    H14     19.322715   17.410945   20.323865 H          1 MOL1         0.1008
@<TRIPOS>BOND
    1     1     2    1
    2     1     3    1
    3     1     4    1
    4     1     5    1
    5     5     6    1
    6     5     7    1
    7     5     8    1
    8     8     9    1
    9     8    10    1
   10     8    11    1
   11    11    12    1
   12    11    13    1
   13    11    14    1
   14    14    15    1
   15    14    16    1
   16    14    17    1
   17    17    18    1
   18    17    19    1
   19    17    20    1
@<TRIPOS>SUBSTRUCTURE
       1 MOL1            1 RESIDUE      1      MOL     
@<SCITEGIC>MOL_PROPERTY
VConf Rank
SciTegic.value.IntegerValue
911

@<SCITEGIC>MOL_PROPERTY
Conf_Id
SciTegic.value.IntegerValue
77

@<SCITEGIC>MOL_PROPERTY
Delta U+W
SciTegic.value.DoubleValue
5.366

@<SCITEGIC>MOL_PROPERTY
U+W
SciTegic.value.DoubleValue
-6.412

@<SCITEGIC>MOL_PROPERTY
Grad RMS
SciTegic.value.DoubleValue
0.000000

@<SCITEGIC>MOL_PROPERTY
U
SciTegic.value.DoubleValue
51.542

@<SCITEGIC>MOL_PROPERTY
W
SciTegic.value.DoubleValue
-57.954

@<SCITEGIC>MOL_PROPERTY
W(PB)
SciTegic.value.DoubleValue
-59.811

@<SCITEGIC>MOL_PROPERTY
W(SA)
SciTegic.value.DoubleValue
1.857

@<SCITEGIC>MOL_PROPERTY
Valence
SciTegic.value.DoubleValue
5.347

@<SCITEGIC>MOL_PROPERTY
Coulomb
SciTegic.value.DoubleValue
45.870

@<SCITEGIC>MOL_PROPERTY
VdW
SciTegic.value.DoubleValue
0.325

@<SCITEGIC>MOL_PROPERTY
VdW6
SciTegic.value.DoubleValue
-6.161

@<SCITEGIC>MOL_PROPERTY
VdW12
SciTegic.value.DoubleValue
6.486

@<SCITEGIC>MOL_PROPERTY
Bond
SciTegic.value.DoubleValue
0.201

@<SCITEGIC>MOL_PROPERTY
Angle
SciTegic.value.DoubleValue
1.484

@<SCITEGIC>MOL_PROPERTY
Pdih
SciTegic.value.DoubleValue
3.662

@<SCITEGIC>MOL_PROPERTY
Idih
SciTegic.value.DoubleValue
0.000

@<SCITEGIC>MOL_PROPERTY
Tether
SciTegic.value.DoubleValue
0.000

@<TRIPOS>MOLECULE
guest-s11_confgen4.mol2 : confsearch ligand conformer 912
          20          19           1
SMALL
USER_CHARGES
 
@<TRIPOS>ATOM
       1    N1      21.505413   20.388848   21.855048 N.4        1 MOL1        -0.5919
       2    H1      21.217461   20.938323   21.039224 H          1 MOL1         0.3682
       3    H2      20.830906   20.577049   22.602943 H          1 MOL1         0.3682
       4    H3      22.411685   20.759797   22.159597 H          1 MOL1         0.3682
       5    C1      21.580392   18.907882   21.537748 C.3        1 MOL1         0.0252
       6    H4      21.953568   18.378870   22.418706 H          1 MOL1         0.0971
       7    H5      22.313718   18.789860   20.735362 H          1 MOL1         0.0971
       8    C2      20.238767   18.294766   21.087701 C.3        1 MOL1        -0.1369
       9    H6      19.730850   18.979231   20.395359 H          1 MOL1         0.0997
      10    H7      20.463632   17.392477   20.503645 H          1 MOL1         0.0997
      11    C3      19.279111   17.887037   22.237780 C.3        1 MOL1        -0.1329
      12    H8      19.741881   17.101201   22.850781 H          1 MOL1         0.0997
      13    H9      18.397035   17.419245   21.778825 H          1 MOL1         0.0997
      14    C4      18.790716   19.047922   23.141293 C.3        1 MOL1        -0.1305
      15    H10     18.759976   19.988692   22.575370 H          1 MOL1         0.0997
      16    H11     17.751242   18.847466   23.437220 H          1 MOL1         0.0997
      17    C5      19.627499   19.205970   24.433050 C.3        1 MOL1        -0.2320
      18    H12     19.282914   20.071510   25.013811 H          1 MOL1         0.1008
      19    H13     19.524082   18.318348   25.070823 H          1 MOL1         0.1008
      20    H14     20.695027   19.339376   24.227673 H          1 MOL1         0.1008
@<TRIPOS>BOND
    1     1     2    1
    2     1     3    1
    3     1     4    1
    4     1     5    1
    5     5     6    1
    6     5     7    1
    7     5     8    1
    8     8     9    1
    9     8    10    1
   10     8    11    1
   11    11    12    1
   12    11    13    1
   13    11    14    1
   14    14    15    1
   15    14    16    1
   16    14    17    1
   17    17    18    1
   18    17    19    1
   19    17    20    1
@<TRIPOS>SUBSTRUCTURE
       1 MOL1            1 RESIDUE      1      MOL     
@<SCITEGIC>MOL_PROPERTY
VConf Rank
SciTegic.value.IntegerValue
912

@<SCITEGIC>MOL_PROPERTY
Conf_Id
SciTegic.value.IntegerValue
67

@<SCITEGIC>MOL_PROPERTY
Delta U+W
SciTegic.value.DoubleValue
5.353

@<SCITEGIC>MOL_PROPERTY
U+W
SciTegic.value.DoubleValue
-6.425

@<SCITEGIC>MOL_PROPERTY
Grad RMS
SciTegic.value.DoubleValue
0.000000

@<SCITEGIC>MOL_PROPERTY
U
SciTegic.value.DoubleValue
51.541

@<SCITEGIC>MOL_PROPERTY
W
SciTegic.value.DoubleValue
-57.966

@<SCITEGIC>MOL_PROPERTY
W(PB)
SciTegic.value.DoubleValue
-59.821

@<SCITEGIC>MOL_PROPERTY
W(SA)
SciTegic.value.DoubleValue
1.855

@<SCITEGIC>MOL_PROPERTY
Valence
SciTegic.value.DoubleValue
5.347

@<SCITEGIC>MOL_PROPERTY
Coulomb
SciTegic.value.DoubleValue
45.870

@<SCITEGIC>MOL_PROPERTY
VdW
SciTegic.value.DoubleValue
0.325

@<SCITEGIC>MOL_PROPERTY
VdW6
SciTegic.value.DoubleValue
-6.161

@<SCITEGIC>MOL_PROPERTY
VdW12
SciTegic.value.DoubleValue
6.486

@<SCITEGIC>MOL_PROPERTY
Bond
SciTegic.value.DoubleValue
0.201

@<SCITEGIC>MOL_PROPERTY
Angle
SciTegic.value.DoubleValue
1.485

@<SCITEGIC>MOL_PROPERTY
Pdih
SciTegic.value.DoubleValue
3.662

@<SCITEGIC>MOL_PROPERTY
Idih
SciTegic.value.DoubleValue
0.000

@<SCITEGIC>MOL_PROPERTY
Tether
SciTegic.value.DoubleValue
0.000

@<TRIPOS>MOLECULE
guest-s11_confgen4.mol2 : confsearch ligand conformer 913
          20          19           1
SMALL
USER_CHARGES
 
@<TRIPOS>ATOM
       1    N1      18.604357   21.476116   24.024884 N.4        1 MOL1        -0.5919
       2    H1      18.327266   20.938927   24.852553 H          1 MOL1         0.3682
       3    H2      18.807122   22.429482   24.343599 H          1 MOL1         0.3682
       4    H3      17.782663   21.535268   23.415206 H          1 MOL1         0.3682
       5    C1      19.791497   20.854534   23.317195 C.3        1 MOL1         0.0252
       6    H4      20.635227   20.851307   24.012628 H          1 MOL1         0.0971
       7    H5      20.049659   21.492250   22.467380 H          1 MOL1         0.0971
       8    C2      19.520221   19.421369   22.825551 C.3        1 MOL1        -0.1369
       9    H6      19.245838   18.788274   23.679936 H          1 MOL1         0.0997
      10    H7      18.662281   19.426993   22.140004 H          1 MOL1         0.0997
      11    C3      20.753392   18.825212   22.110977 C.3        1 MOL1        -0.1329
      12    H8      21.611158   18.825961   22.798020 H          1 MOL1         0.0997
      13    H9      21.028257   19.463862   21.259880 H          1 MOL1         0.0997
      14    C4      20.492554   17.385955   21.612941 C.3        1 MOL1        -0.1305
      15    H10     20.219263   16.743161   22.461573 H          1 MOL1         0.0997
      16    H11     19.636516   17.380973   20.923579 H          1 MOL1         0.0997
      17    C5      21.727269   16.794432   20.899807 C.3        1 MOL1        -0.2320
      18    H12     22.591923   16.754242   21.575065 H          1 MOL1         0.1008
      19    H13     21.522780   15.772926   20.553753 H          1 MOL1         0.1008
      20    H14     22.004548   17.396943   20.024987 H          1 MOL1         0.1008
@<TRIPOS>BOND
    1     1     2    1
    2     1     3    1
    3     1     4    1
    4     1     5    1
    5     5     6    1
    6     5     7    1
    7     5     8    1
    8     8     9    1
    9     8    10    1
   10     8    11    1
   11    11    12    1
   12    11    13    1
   13    11    14    1
   14    14    15    1
   15    14    16    1
   16    14    17    1
   17    17    18    1
   18    17    19    1
   19    17    20    1
@<TRIPOS>SUBSTRUCTURE
       1 MOL1            1 RESIDUE      1      MOL     
@<SCITEGIC>MOL_PROPERTY
VConf Rank
SciTegic.value.IntegerValue
913

@<SCITEGIC>MOL_PROPERTY
Conf_Id
SciTegic.value.IntegerValue
72

@<SCITEGIC>MOL_PROPERTY
Delta U+W
SciTegic.value.DoubleValue
0.000

@<SCITEGIC>MOL_PROPERTY
U+W
SciTegic.value.DoubleValue
-11.778

@<SCITEGIC>MOL_PROPERTY
Grad RMS
SciTegic.value.DoubleValue
0.000000

@<SCITEGIC>MOL_PROPERTY
U
SciTegic.value.DoubleValue
45.772

@<SCITEGIC>MOL_PROPERTY
W
SciTegic.value.DoubleValue
-57.550

@<SCITEGIC>MOL_PROPERTY
W(PB)
SciTegic.value.DoubleValue
-59.511

@<SCITEGIC>MOL_PROPERTY
W(SA)
SciTegic.value.DoubleValue
1.961

@<SCITEGIC>MOL_PROPERTY
Valence
SciTegic.value.DoubleValue
1.299

@<SCITEGIC>MOL_PROPERTY
Coulomb
SciTegic.value.DoubleValue
44.177

@<SCITEGIC>MOL_PROPERTY
VdW
SciTegic.value.DoubleValue
0.297

@<SCITEGIC>MOL_PROPERTY
VdW6
SciTegic.value.DoubleValue
-3.490

@<SCITEGIC>MOL_PROPERTY
VdW12
SciTegic.value.DoubleValue
3.786

@<SCITEGIC>MOL_PROPERTY
Bond
SciTegic.value.DoubleValue
0.096

@<SCITEGIC>MOL_PROPERTY
Angle
SciTegic.value.DoubleValue
0.381

@<SCITEGIC>MOL_PROPERTY
Pdih
SciTegic.value.DoubleValue
0.822

@<SCITEGIC>MOL_PROPERTY
Idih
SciTegic.value.DoubleValue
0.000

@<SCITEGIC>MOL_PROPERTY
Tether
SciTegic.value.DoubleValue
0.000

@<TRIPOS>MOLECULE
guest-s11_confgen4.mol2 : confsearch ligand conformer 914
          20          19           1
SMALL
USER_CHARGES
 
@<TRIPOS>ATOM
       1    N1      18.993038   16.507537   21.668565 N.4        1 MOL1        -0.5919
       2    H1      19.358217   16.069818   22.520258 H          1 MOL1         0.3682
       3    H2      18.003323   16.714041   21.836446 H          1 MOL1         0.3682
       4    H3      19.027156   15.796184   20.930734 H          1 MOL1         0.3682
       5    C1      19.774556   17.749445   21.289790 C.3        1 MOL1         0.0252
       6    H4      19.352274   18.143699   20.361493 H          1 MOL1         0.0971
       7    H5      20.808845   17.451766   21.097075 H          1 MOL1         0.0971
       8    C2      19.743474   18.839033   22.376573 C.3        1 MOL1        -0.1369
       9    H6      18.702222   19.123525   22.578241 H          1 MOL1         0.0997
      10    H7      20.152787   18.427254   23.307684 H          1 MOL1         0.0997
      11    C3      20.550512   20.086998   21.947152 C.3        1 MOL1        -0.1329
      12    H8      20.175518   20.438712   20.975855 H          1 MOL1         0.0997
      13    H9      21.602631   19.811400   21.790059 H          1 MOL1         0.0997
      14    C4      20.467091   21.255266   22.959505 C.3        1 MOL1        -0.1305
      15    H10     20.976285   22.130039   22.531214 H          1 MOL1         0.0997
      16    H11     19.417917   21.550132   23.101504 H          1 MOL1         0.0997
      17    C5      21.105182   20.928814   24.329104 C.3        1 MOL1        -0.2320
      18    H12     22.147172   20.603831   24.212237 H          1 MOL1         0.1008
      19    H13     21.101341   21.815808   24.975773 H          1 MOL1         0.1008
      20    H14     20.554487   20.137594   24.852677 H          1 MOL1         0.1008
@<TRIPOS>BOND
    1     1     2    1
    2     1     3    1
    3     1     4    1
    4     1     5    1
    5     5     6    1
    6     5     7    1
    7     5     8    1
    8     8     9    1
    9     8    10    1
   10     8    11    1
   11    11    12    1
   12    11    13    1
   13    11    14    1
   14    14    15    1
   15    14    16    1
   16    14    17    1
   17    17    18    1
   18    17    19    1
   19    17    20    1
@<TRIPOS>SUBSTRUCTURE
       1 MOL1            1 RESIDUE      1      MOL     
@<SCITEGIC>MOL_PROPERTY
VConf Rank
SciTegic.value.IntegerValue
914

@<SCITEGIC>MOL_PROPERTY
Conf_Id
SciTegic.value.IntegerValue
42

@<SCITEGIC>MOL_PROPERTY
Delta U+W
SciTegic.value.DoubleValue
0.508

@<SCITEGIC>MOL_PROPERTY
U+W
SciTegic.value.DoubleValue
-11.270

@<SCITEGIC>MOL_PROPERTY
Grad RMS
SciTegic.value.DoubleValue
0.000000

@<SCITEGIC>MOL_PROPERTY
U
SciTegic.value.DoubleValue
46.486

@<SCITEGIC>MOL_PROPERTY
W
SciTegic.value.DoubleValue
-57.756

@<SCITEGIC>MOL_PROPERTY
W(PB)
SciTegic.value.DoubleValue
-59.705

@<SCITEGIC>MOL_PROPERTY
W(SA)
SciTegic.value.DoubleValue
1.949

@<SCITEGIC>MOL_PROPERTY
Valence
SciTegic.value.DoubleValue
1.806

@<SCITEGIC>MOL_PROPERTY
Coulomb
SciTegic.value.DoubleValue
44.248

@<SCITEGIC>MOL_PROPERTY
VdW
SciTegic.value.DoubleValue
0.433

@<SCITEGIC>MOL_PROPERTY
VdW6
SciTegic.value.DoubleValue
-4.089

@<SCITEGIC>MOL_PROPERTY
VdW12
SciTegic.value.DoubleValue
4.522

@<SCITEGIC>MOL_PROPERTY
Bond
SciTegic.value.DoubleValue
0.131

@<SCITEGIC>MOL_PROPERTY
Angle
SciTegic.value.DoubleValue
0.628

@<SCITEGIC>MOL_PROPERTY
Pdih
SciTegic.value.DoubleValue
1.047

@<SCITEGIC>MOL_PROPERTY
Idih
SciTegic.value.DoubleValue
0.000

@<SCITEGIC>MOL_PROPERTY
Tether
SciTegic.value.DoubleValue
0.000

@<TRIPOS>MOLECULE
guest-s11_confgen4.mol2 : confsearch ligand conformer 915
          20          19           1
SMALL
USER_CHARGES
 
@<TRIPOS>ATOM
       1    N1      21.829012   16.614357   21.966115 N.4        1 MOL1        -0.5919
       2    H1      22.565279   16.806019   22.652804 H          1 MOL1         0.3682
       3    H2      21.137036   16.014215   22.425824 H          1 MOL1         0.3682
       4    H3      22.256906   16.056600   21.219527 H          1 MOL1         0.3682
       5    C1      21.207627   17.888815   21.431119 C.3        1 MOL1         0.0252
       6    H4      20.456548   17.611467   20.686495 H          1 MOL1         0.0971
       7    H5      21.992277   18.462164   20.930030 H          1 MOL1         0.0971
       8    C2      20.556076   18.750970   22.527221 C.3        1 MOL1        -0.1369
       9    H6      19.783179   18.160133   23.034773 H          1 MOL1         0.0997
      10    H7      21.310126   19.013859   23.280951 H          1 MOL1         0.0997
      11    C3      19.937744   20.040470   21.937314 C.3        1 MOL1        -0.1329
      12    H8      19.150857   19.777562   21.216706 H          1 MOL1         0.0997
      13    H9      20.708735   20.579370   21.369069 H          1 MOL1         0.0997
      14    C4      19.359248   20.995097   23.010020 C.3        1 MOL1        -0.1305
      15    H10     20.148989   21.279710   23.719373 H          1 MOL1         0.0997
      16    H11     19.038589   21.924547   22.518860 H          1 MOL1         0.0997
      17    C5      18.158786   20.399209   23.780307 C.3        1 MOL1        -0.2320
      18    H12     18.456850   19.534462   24.385943 H          1 MOL1         0.1008
      19    H13     17.730455   21.146070   24.461250 H          1 MOL1         0.1008
      20    H14     17.366021   20.080317   23.091217 H          1 MOL1         0.1008
@<TRIPOS>BOND
    1     1     2    1
    2     1     3    1
    3     1     4    1
    4     1     5    1
    5     5     6    1
    6     5     7    1
    7     5     8    1
    8     8     9    1
    9     8    10    1
   10     8    11    1
   11    11    12    1
   12    11    13    1
   13    11    14    1
   14    14    15    1
   15    14    16    1
   16    14    17    1
   17    17    18    1
   18    17    19    1
   19    17    20    1
@<TRIPOS>SUBSTRUCTURE
       1 MOL1            1 RESIDUE      1      MOL     
@<SCITEGIC>MOL_PROPERTY
VConf Rank
SciTegic.value.IntegerValue
915

@<SCITEGIC>MOL_PROPERTY
Conf_Id
SciTegic.value.IntegerValue
41

@<SCITEGIC>MOL_PROPERTY
Delta U+W
SciTegic.value.DoubleValue
0.515

@<SCITEGIC>MOL_PROPERTY
U+W
SciTegic.value.DoubleValue
-11.263

@<SCITEGIC>MOL_PROPERTY
Grad RMS
SciTegic.value.DoubleValue
0.000000

@<SCITEGIC>MOL_PROPERTY
U
SciTegic.value.DoubleValue
46.486

@<SCITEGIC>MOL_PROPERTY
W
SciTegic.value.DoubleValue
-57.749

@<SCITEGIC>MOL_PROPERTY
W(PB)
SciTegic.value.DoubleValue
-59.685

@<SCITEGIC>MOL_PROPERTY
W(SA)
SciTegic.value.DoubleValue
1.936

@<SCITEGIC>MOL_PROPERTY
Valence
SciTegic.value.DoubleValue
1.806

@<SCITEGIC>MOL_PROPERTY
Coulomb
SciTegic.value.DoubleValue
44.248

@<SCITEGIC>MOL_PROPERTY
VdW
SciTegic.value.DoubleValue
0.433

@<SCITEGIC>MOL_PROPERTY
VdW6
SciTegic.value.DoubleValue
-4.089

@<SCITEGIC>MOL_PROPERTY
VdW12
SciTegic.value.DoubleValue
4.522

@<SCITEGIC>MOL_PROPERTY
Bond
SciTegic.value.DoubleValue
0.131

@<SCITEGIC>MOL_PROPERTY
Angle
SciTegic.value.DoubleValue
0.628

@<SCITEGIC>MOL_PROPERTY
Pdih
SciTegic.value.DoubleValue
1.047

@<SCITEGIC>MOL_PROPERTY
Idih
SciTegic.value.DoubleValue
0.000

@<SCITEGIC>MOL_PROPERTY
Tether
SciTegic.value.DoubleValue
0.000

@<TRIPOS>MOLECULE
guest-s11_confgen4.mol2 : confsearch ligand conformer 916
          20          19           1
SMALL
USER_CHARGES
 
@<TRIPOS>ATOM
       1    N1      18.489905   17.627532   24.093631 N.4        1 MOL1        -0.5919
       2    H1      18.095400   17.396760   25.011570 H          1 MOL1         0.3682
       3    H2      17.834506   18.271265   23.640863 H          1 MOL1         0.3682
       4    H3      18.492546   16.762178   23.544679 H          1 MOL1         0.3682
       5    C1      19.878622   18.225486   24.212281 C.3        1 MOL1         0.0252
       6    H4      20.505499   17.502563   24.741437 H          1 MOL1         0.0971
       7    H5      19.809046   19.127877   24.825707 H          1 MOL1         0.0971
       8    C2      20.529160   18.568120   22.857559 C.3        1 MOL1        -0.1369
       9    H6      21.563946   18.878811   23.048078 H          1 MOL1         0.0997
      10    H7      20.581729   17.663670   22.237158 H          1 MOL1         0.0997
      11    C3      19.776631   19.690366   22.099022 C.3        1 MOL1        -0.1329
      12    H8      19.747878   20.598917   22.716417 H          1 MOL1         0.0997
      13    H9      18.732191   19.389495   21.943369 H          1 MOL1         0.0997
      14    C4      20.394279   20.022872   20.718829 C.3        1 MOL1        -0.1305
      15    H10     20.412745   19.120046   20.092387 H          1 MOL1         0.0997
      16    H11     19.739727   20.740002   20.203826 H          1 MOL1         0.0997
      17    C5      21.815930   20.623497   20.807814 C.3        1 MOL1        -0.2320
      18    H12     22.537508   19.897540   21.202252 H          1 MOL1         0.1008
      19    H13     22.166667   20.928486   19.813373 H          1 MOL1         0.1008
      20    H14     21.830616   21.510264   21.454678 H          1 MOL1         0.1008
@<TRIPOS>BOND
    1     1     2    1
    2     1     3    1
    3     1     4    1
    4     1     5    1
    5     5     6    1
    6     5     7    1
    7     5     8    1
    8     8     9    1
    9     8    10    1
   10     8    11    1
   11    11    12    1
   12    11    13    1
   13    11    14    1
   14    14    15    1
   15    14    16    1
   16    14    17    1
   17    17    18    1
   18    17    19    1
   19    17    20    1
@<TRIPOS>SUBSTRUCTURE
       1 MOL1            1 RESIDUE      1      MOL     
@<SCITEGIC>MOL_PROPERTY
VConf Rank
SciTegic.value.IntegerValue
916

@<SCITEGIC>MOL_PROPERTY
Conf_Id
SciTegic.value.IntegerValue
33

@<SCITEGIC>MOL_PROPERTY
Delta U+W
SciTegic.value.DoubleValue
0.703

@<SCITEGIC>MOL_PROPERTY
U+W
SciTegic.value.DoubleValue
-11.075

@<SCITEGIC>MOL_PROPERTY
Grad RMS
SciTegic.value.DoubleValue
0.000000

@<SCITEGIC>MOL_PROPERTY
U
SciTegic.value.DoubleValue
47.080

@<SCITEGIC>MOL_PROPERTY
W
SciTegic.value.DoubleValue
-58.154

@<SCITEGIC>MOL_PROPERTY
W(PB)
SciTegic.value.DoubleValue
-60.053

@<SCITEGIC>MOL_PROPERTY
W(SA)
SciTegic.value.DoubleValue
1.899

@<SCITEGIC>MOL_PROPERTY
Valence
SciTegic.value.DoubleValue
1.943

@<SCITEGIC>MOL_PROPERTY
Coulomb
SciTegic.value.DoubleValue
44.572

@<SCITEGIC>MOL_PROPERTY
VdW
SciTegic.value.DoubleValue
0.565

@<SCITEGIC>MOL_PROPERTY
VdW6
SciTegic.value.DoubleValue
-4.575

@<SCITEGIC>MOL_PROPERTY
VdW12
SciTegic.value.DoubleValue
5.139

@<SCITEGIC>MOL_PROPERTY
Bond
SciTegic.value.DoubleValue
0.158

@<SCITEGIC>MOL_PROPERTY
Angle
SciTegic.value.DoubleValue
0.700

@<SCITEGIC>MOL_PROPERTY
Pdih
SciTegic.value.DoubleValue
1.085

@<SCITEGIC>MOL_PROPERTY
Idih
SciTegic.value.DoubleValue
0.000

@<SCITEGIC>MOL_PROPERTY
Tether
SciTegic.value.DoubleValue
0.000

@<TRIPOS>MOLECULE
guest-s11_confgen4.mol2 : confsearch ligand conformer 917
          20          19           1
SMALL
USER_CHARGES
 
@<TRIPOS>ATOM
       1    N1      21.983546   17.108085   22.924735 N.4        1 MOL1        -0.5919
       2    H1      22.933144   16.724003   22.877379 H          1 MOL1         0.3682
       3    H2      21.532872   16.687649   23.743466 H          1 MOL1         0.3682
       4    H3      21.483746   16.770119   22.097137 H          1 MOL1         0.3682
       5    C1      21.992422   18.622800   23.000380 C.3        1 MOL1         0.0252
       6    H4      22.505162   19.004579   22.113372 H          1 MOL1         0.0971
       7    H5      22.577703   18.906276   23.879407 H          1 MOL1         0.0971
       8    C2      20.588614   19.251673   23.098894 C.3        1 MOL1        -0.1369
       9    H6      20.069699   18.853270   23.980764 H          1 MOL1         0.0997
      10    H7      20.711459   20.328853   23.266820 H          1 MOL1         0.0997
      11    C3      19.735631   19.013782   21.827303 C.3        1 MOL1        -0.1329
      12    H8      19.646493   17.934947   21.643511 H          1 MOL1         0.0997
      13    H9      20.250461   19.434881   20.952606 H          1 MOL1         0.0997
      14    C4      18.308754   19.607071   21.922206 C.3        1 MOL1        -0.1305
      15    H10     17.739009   19.297306   21.034863 H          1 MOL1         0.0997
      16    H11     17.784630   19.178619   22.787995 H          1 MOL1         0.0997
      17    C5      18.287104   21.150175   22.012340 C.3        1 MOL1        -0.2320
      18    H12     18.832329   21.602785   21.173961 H          1 MOL1         0.1008
      19    H13     17.254812   21.522057   21.980318 H          1 MOL1         0.1008
      20    H14     18.735861   21.506805   22.947596 H          1 MOL1         0.1008
@<TRIPOS>BOND
    1     1     2    1
    2     1     3    1
    3     1     4    1
    4     1     5    1
    5     5     6    1
    6     5     7    1
    7     5     8    1
    8     8     9    1
    9     8    10    1
   10     8    11    1
   11    11    12    1
   12    11    13    1
   13    11    14    1
   14    14    15    1
   15    14    16    1
   16    14    17    1
   17    17    18    1
   18    17    19    1
   19    17    20    1
@<TRIPOS>SUBSTRUCTURE
       1 MOL1            1 RESIDUE      1      MOL     
@<SCITEGIC>MOL_PROPERTY
VConf Rank
SciTegic.value.IntegerValue
917

@<SCITEGIC>MOL_PROPERTY
Conf_Id
SciTegic.value.IntegerValue
24

@<SCITEGIC>MOL_PROPERTY
Delta U+W
SciTegic.value.DoubleValue
0.847

@<SCITEGIC>MOL_PROPERTY
U+W
SciTegic.value.DoubleValue
-10.931

@<SCITEGIC>MOL_PROPERTY
Grad RMS
SciTegic.value.DoubleValue
0.000000

@<SCITEGIC>MOL_PROPERTY
U
SciTegic.value.DoubleValue
47.080

@<SCITEGIC>MOL_PROPERTY
W
SciTegic.value.DoubleValue
-58.011

@<SCITEGIC>MOL_PROPERTY
W(PB)
SciTegic.value.DoubleValue
-59.914

@<SCITEGIC>MOL_PROPERTY
W(SA)
SciTegic.value.DoubleValue
1.903

@<SCITEGIC>MOL_PROPERTY
Valence
SciTegic.value.DoubleValue
1.943

@<SCITEGIC>MOL_PROPERTY
Coulomb
SciTegic.value.DoubleValue
44.572

@<SCITEGIC>MOL_PROPERTY
VdW
SciTegic.value.DoubleValue
0.565

@<SCITEGIC>MOL_PROPERTY
VdW6
SciTegic.value.DoubleValue
-4.575

@<SCITEGIC>MOL_PROPERTY
VdW12
SciTegic.value.DoubleValue
5.140

@<SCITEGIC>MOL_PROPERTY
Bond
SciTegic.value.DoubleValue
0.158

@<SCITEGIC>MOL_PROPERTY
Angle
SciTegic.value.DoubleValue
0.700

@<SCITEGIC>MOL_PROPERTY
Pdih
SciTegic.value.DoubleValue
1.085

@<SCITEGIC>MOL_PROPERTY
Idih
SciTegic.value.DoubleValue
0.000

@<SCITEGIC>MOL_PROPERTY
Tether
SciTegic.value.DoubleValue
0.000

@<TRIPOS>MOLECULE
guest-s11_confgen4.mol2 : confsearch ligand conformer 918
          20          19           1
SMALL
USER_CHARGES
 
@<TRIPOS>ATOM
       1    N1      19.724685   21.459011   24.009458 N.4        1 MOL1        -0.5919
       2    H1      20.232267   21.734643   24.856734 H          1 MOL1         0.3682
       3    H2      20.059952   22.062813   23.252331 H          1 MOL1         0.3682
       4    H3      18.738657   21.690812   24.165431 H          1 MOL1         0.3682
       5    C1      19.917308   19.990216   23.690294 C.3        1 MOL1         0.0252
       6    H4      19.567382   19.409203   24.547821 H          1 MOL1         0.0971
       7    H5      20.988646   19.810981   23.567438 H          1 MOL1         0.0971
       8    C2      19.167498   19.543201   22.421204 C.3        1 MOL1        -0.1369
       9    H6      18.098648   19.765770   22.538605 H          1 MOL1         0.0997
      10    H7      19.511488   20.132134   21.561388 H          1 MOL1         0.0997
      11    C3      19.333442   18.031046   22.128208 C.3        1 MOL1        -0.1329
      12    H8      18.766299   17.779570   21.221362 H          1 MOL1         0.0997
      13    H9      18.870270   17.457123   22.942810 H          1 MOL1         0.0997
      14    C4      20.799828   17.558405   21.956311 C.3        1 MOL1        -0.1305
      15    H10     21.357919   17.704731   22.891137 H          1 MOL1         0.0997
      16    H11     20.799250   16.474821   21.772661 H          1 MOL1         0.0997
      17    C5      21.539317   18.259705   20.794268 C.3        1 MOL1        -0.2320
      18    H12     22.537740   17.825049   20.655961 H          1 MOL1         0.1008
      19    H13     20.990140   18.145640   19.850675 H          1 MOL1         0.1008
      20    H14     21.670546   19.331417   20.988816 H          1 MOL1         0.1008
@<TRIPOS>BOND
    1     1     2    1
    2     1     3    1
    3     1     4    1
    4     1     5    1
    5     5     6    1
    6     5     7    1
    7     5     8    1
    8     8     9    1
    9     8    10    1
   10     8    11    1
   11    11    12    1
   12    11    13    1
   13    11    14    1
   14    14    15    1
   15    14    16    1
   16    14    17    1
   17    17    18    1
   18    17    19    1
   19    17    20    1
@<TRIPOS>SUBSTRUCTURE
       1 MOL1            1 RESIDUE      1      MOL     
@<SCITEGIC>MOL_PROPERTY
VConf Rank
SciTegic.value.IntegerValue
918

@<SCITEGIC>MOL_PROPERTY
Conf_Id
SciTegic.value.IntegerValue
64

@<SCITEGIC>MOL_PROPERTY
Delta U+W
SciTegic.value.DoubleValue
0.707

@<SCITEGIC>MOL_PROPERTY
U+W
SciTegic.value.DoubleValue
-11.070

@<SCITEGIC>MOL_PROPERTY
Grad RMS
SciTegic.value.DoubleValue
0.000000

@<SCITEGIC>MOL_PROPERTY
U
SciTegic.value.DoubleValue
47.077

@<SCITEGIC>MOL_PROPERTY
W
SciTegic.value.DoubleValue
-58.148

@<SCITEGIC>MOL_PROPERTY
W(PB)
SciTegic.value.DoubleValue
-60.054

@<SCITEGIC>MOL_PROPERTY
W(SA)
SciTegic.value.DoubleValue
1.906

@<SCITEGIC>MOL_PROPERTY
Valence
SciTegic.value.DoubleValue
2.039

@<SCITEGIC>MOL_PROPERTY
Coulomb
SciTegic.value.DoubleValue
44.655

@<SCITEGIC>MOL_PROPERTY
VdW
SciTegic.value.DoubleValue
0.383

@<SCITEGIC>MOL_PROPERTY
VdW6
SciTegic.value.DoubleValue
-4.912

@<SCITEGIC>MOL_PROPERTY
VdW12
SciTegic.value.DoubleValue
5.295

@<SCITEGIC>MOL_PROPERTY
Bond
SciTegic.value.DoubleValue
0.159

@<SCITEGIC>MOL_PROPERTY
Angle
SciTegic.value.DoubleValue
0.856

@<SCITEGIC>MOL_PROPERTY
Pdih
SciTegic.value.DoubleValue
1.024

@<SCITEGIC>MOL_PROPERTY
Idih
SciTegic.value.DoubleValue
0.000

@<SCITEGIC>MOL_PROPERTY
Tether
SciTegic.value.DoubleValue
0.000

@<TRIPOS>MOLECULE
guest-s11_confgen4.mol2 : confsearch ligand conformer 919
          20          19           1
SMALL
USER_CHARGES
 
@<TRIPOS>ATOM
       1    N1      19.185085   18.363425   24.943982 N.4        1 MOL1        -0.5919
       2    H1      19.811150   18.556937   25.731957 H          1 MOL1         0.3682
       3    H2      18.501710   19.126258   24.907828 H          1 MOL1         0.3682
       4    H3      18.666682   17.510472   25.178966 H          1 MOL1         0.3682
       5    C1      19.943785   18.220159   23.640074 C.3        1 MOL1         0.0252
       6    H4      19.220416   17.985954   22.854663 H          1 MOL1         0.0971
       7    H5      20.629798   17.374624   23.739247 H          1 MOL1         0.0971
       8    C2      20.733797   19.485858   23.257311 C.3        1 MOL1        -0.1369
       9    H6      20.047249   20.337242   23.166476 H          1 MOL1         0.0997
      10    H7      21.427623   19.735702   24.070910 H          1 MOL1         0.0997
      11    C3      21.541955   19.314662   21.946750 C.3        1 MOL1        -0.1329
      12    H8      22.308786   18.542476   22.099040 H          1 MOL1         0.0997
      13    H9      22.087838   20.245687   21.740674 H          1 MOL1         0.0997
      14    C4      20.694945   18.938084   20.704178 C.3        1 MOL1        -0.1305
      15    H10     21.368053   18.824751   19.842805 H          1 MOL1         0.0997
      16    H11     20.224022   17.956250   20.849122 H          1 MOL1         0.0997
      17    C5      19.614016   19.986756   20.356489 C.3        1 MOL1        -0.2320
      18    H12     20.057202   20.982605   20.226692 H          1 MOL1         0.1008
      19    H13     19.107201   19.720473   19.419932 H          1 MOL1         0.1008
      20    H14     18.847904   20.050258   21.139225 H          1 MOL1         0.1008
@<TRIPOS>BOND
    1     1     2    1
    2     1     3    1
    3     1     4    1
    4     1     5    1
    5     5     6    1
    6     5     7    1
    7     5     8    1
    8     8     9    1
    9     8    10    1
   10     8    11    1
   11    11    12    1
   12    11    13    1
   13    11    14    1
   14    14    15    1
   15    14    16    1
   16    14    17    1
   17    17    18    1
   18    17    19    1
   19    17    20    1
@<TRIPOS>SUBSTRUCTURE
       1 MOL1            1 RESIDUE      1      MOL     
@<SCITEGIC>MOL_PROPERTY
VConf Rank
SciTegic.value.IntegerValue
919

@<SCITEGIC>MOL_PROPERTY
Conf_Id
SciTegic.value.IntegerValue
22

@<SCITEGIC>MOL_PROPERTY
Delta U+W
SciTegic.value.DoubleValue
0.731

@<SCITEGIC>MOL_PROPERTY
U+W
SciTegic.value.DoubleValue
-11.047

@<SCITEGIC>MOL_PROPERTY
Grad RMS
SciTegic.value.DoubleValue
0.000000

@<SCITEGIC>MOL_PROPERTY
U
SciTegic.value.DoubleValue
47.078

@<SCITEGIC>MOL_PROPERTY
W
SciTegic.value.DoubleValue
-58.125

@<SCITEGIC>MOL_PROPERTY
W(PB)
SciTegic.value.DoubleValue
-60.031

@<SCITEGIC>MOL_PROPERTY
W(SA)
SciTegic.value.DoubleValue
1.906

@<SCITEGIC>MOL_PROPERTY
Valence
SciTegic.value.DoubleValue
2.039

@<SCITEGIC>MOL_PROPERTY
Coulomb
SciTegic.value.DoubleValue
44.655

@<SCITEGIC>MOL_PROPERTY
VdW
SciTegic.value.DoubleValue
0.383

@<SCITEGIC>MOL_PROPERTY
VdW6
SciTegic.value.DoubleValue
-4.913

@<SCITEGIC>MOL_PROPERTY
VdW12
SciTegic.value.DoubleValue
5.296

@<SCITEGIC>MOL_PROPERTY
Bond
SciTegic.value.DoubleValue
0.159

@<SCITEGIC>MOL_PROPERTY
Angle
SciTegic.value.DoubleValue
0.856

@<SCITEGIC>MOL_PROPERTY
Pdih
SciTegic.value.DoubleValue
1.024

@<SCITEGIC>MOL_PROPERTY
Idih
SciTegic.value.DoubleValue
0.000

@<SCITEGIC>MOL_PROPERTY
Tether
SciTegic.value.DoubleValue
0.000

@<TRIPOS>MOLECULE
guest-s11_confgen4.mol2 : confsearch ligand conformer 920
          20          19           1
SMALL
USER_CHARGES
 
@<TRIPOS>ATOM
       1    N1      17.516932   19.912168   22.380820 N.4        1 MOL1        -0.5919
       2    H1      17.573452   20.911209   22.159329 H          1 MOL1         0.3682
       3    H2      17.016843   19.460428   21.608711 H          1 MOL1         0.3682
       4    H3      16.922023   19.824884   23.211457 H          1 MOL1         0.3682
       5    C1      18.886665   19.302682   22.602111 C.3        1 MOL1         0.0252
       6    H4      18.750521   18.248869   22.859675 H          1 MOL1         0.0971
       7    H5      19.342839   19.812699   23.453613 H          1 MOL1         0.0971
       8    C2      19.806753   19.422515   21.374207 C.3        1 MOL1        -0.1369
       9    H6      19.283950   19.012276   20.499962 H          1 MOL1         0.0997
      10    H7      19.989483   20.483166   21.156457 H          1 MOL1         0.0997
      11    C3      21.159743   18.682534   21.528351 C.3        1 MOL1        -0.1329
      12    H8      21.688345   18.758450   20.567951 H          1 MOL1         0.0997
      13    H9      20.988400   17.609052   21.688437 H          1 MOL1         0.0997
      14    C4      22.090569   19.246685   22.633107 C.3        1 MOL1        -0.1305
      15    H10     23.131179   19.040600   22.345422 H          1 MOL1         0.0997
      16    H11     22.002908   20.340997   22.683481 H          1 MOL1         0.0997
      17    C5      21.854636   18.624737   24.029657 C.3        1 MOL1        -0.2320
      18    H12     20.863917   18.864296   24.429607 H          1 MOL1         0.1008
      19    H13     21.953356   17.531982   23.995818 H          1 MOL1         0.1008
      20    H14     22.596093   19.002385   24.745623 H          1 MOL1         0.1008
@<TRIPOS>BOND
    1     1     2    1
    2     1     3    1
    3     1     4    1
    4     1     5    1
    5     5     6    1
    6     5     7    1
    7     5     8    1
    8     8     9    1
    9     8    10    1
   10     8    11    1
   11    11    12    1
   12    11    13    1
   13    11    14    1
   14    14    15    1
   15    14    16    1
   16    14    17    1
   17    17    18    1
   18    17    19    1
   19    17    20    1
@<TRIPOS>SUBSTRUCTURE
       1 MOL1            1 RESIDUE      1      MOL     
@<SCITEGIC>MOL_PROPERTY
VConf Rank
SciTegic.value.IntegerValue
920

@<SCITEGIC>MOL_PROPERTY
Conf_Id
SciTegic.value.IntegerValue
61

@<SCITEGIC>MOL_PROPERTY
Delta U+W
SciTegic.value.DoubleValue
2.669

@<SCITEGIC>MOL_PROPERTY
U+W
SciTegic.value.DoubleValue
-9.108

@<SCITEGIC>MOL_PROPERTY
Grad RMS
SciTegic.value.DoubleValue
0.000000

@<SCITEGIC>MOL_PROPERTY
U
SciTegic.value.DoubleValue
48.916

@<SCITEGIC>MOL_PROPERTY
W
SciTegic.value.DoubleValue
-58.025

@<SCITEGIC>MOL_PROPERTY
W(PB)
SciTegic.value.DoubleValue
-59.935

@<SCITEGIC>MOL_PROPERTY
W(SA)
SciTegic.value.DoubleValue
1.911

@<SCITEGIC>MOL_PROPERTY
Valence
SciTegic.value.DoubleValue
3.785

@<SCITEGIC>MOL_PROPERTY
Coulomb
SciTegic.value.DoubleValue
44.716

@<SCITEGIC>MOL_PROPERTY
VdW
SciTegic.value.DoubleValue
0.415

@<SCITEGIC>MOL_PROPERTY
VdW6
SciTegic.value.DoubleValue
-4.836

@<SCITEGIC>MOL_PROPERTY
VdW12
SciTegic.value.DoubleValue
5.251

@<SCITEGIC>MOL_PROPERTY
Bond
SciTegic.value.DoubleValue
0.175

@<SCITEGIC>MOL_PROPERTY
Angle
SciTegic.value.DoubleValue
1.195

@<SCITEGIC>MOL_PROPERTY
Pdih
SciTegic.value.DoubleValue
2.415

@<SCITEGIC>MOL_PROPERTY
Idih
SciTegic.value.DoubleValue
0.000

@<SCITEGIC>MOL_PROPERTY
Tether
SciTegic.value.DoubleValue
0.000

@<TRIPOS>MOLECULE
guest-s11_confgen4.mol2 : confsearch ligand conformer 921
          20          19           1
SMALL
USER_CHARGES
 
@<TRIPOS>ATOM
       1    N1      20.040778   16.821580   22.974268 N.4        1 MOL1        -0.5919
       2    H1      19.864950   16.151330   23.730239 H          1 MOL1         0.3682
       3    H2      20.358738   16.279050   22.165031 H          1 MOL1         0.3682
       4    H3      20.824034   17.409744   23.270238 H          1 MOL1         0.3682
       5    C1      18.806011   17.641355   22.651946 C.3        1 MOL1         0.0252
       6    H4      18.478660   18.151325   23.561951 H          1 MOL1         0.0971
       7    H5      18.023318   16.935882   22.359955 H          1 MOL1         0.0971
       8    C2      19.002623   18.668775   21.517386 C.3        1 MOL1        -0.1369
       9    H6      19.579843   18.219468   20.698389 H          1 MOL1         0.0997
      10    H7      18.013424   18.896345   21.098378 H          1 MOL1         0.0997
      11    C3      19.647971   20.006116   21.963273 C.3        1 MOL1        -0.1329
      12    H8      19.026937   20.470681   22.741709 H          1 MOL1         0.0997
      13    H9      19.631209   20.695495   21.107729 H          1 MOL1         0.0997
      14    C4      21.102810   19.877889   22.472499 C.3        1 MOL1        -0.1305
      15    H10     21.123325   19.316192   23.414798 H          1 MOL1         0.0997
      16    H11     21.705929   19.318055   21.743956 H          1 MOL1         0.0997
      17    C5      21.745531   21.261027   22.710947 C.3        1 MOL1        -0.2320
      18    H12     22.773347   21.152536   23.080913 H          1 MOL1         0.1008
      19    H13     21.782796   21.845484   21.782376 H          1 MOL1         0.1008
      20    H14     21.179062   21.836702   23.454574 H          1 MOL1         0.1008
@<TRIPOS>BOND
    1     1     2    1
    2     1     3    1
    3     1     4    1
    4     1     5    1
    5     5     6    1
    6     5     7    1
    7     5     8    1
    8     8     9    1
    9     8    10    1
   10     8    11    1
   11    11    12    1
   12    11    13    1
   13    11    14    1
   14    14    15    1
   15    14    16    1
   16    14    17    1
   17    17    18    1
   18    17    19    1
   19    17    20    1
@<TRIPOS>SUBSTRUCTURE
       1 MOL1            1 RESIDUE      1      MOL     
@<SCITEGIC>MOL_PROPERTY
VConf Rank
SciTegic.value.IntegerValue
921

@<SCITEGIC>MOL_PROPERTY
Conf_Id
SciTegic.value.IntegerValue
69

@<SCITEGIC>MOL_PROPERTY
Delta U+W
SciTegic.value.DoubleValue
2.811

@<SCITEGIC>MOL_PROPERTY
U+W
SciTegic.value.DoubleValue
-8.967

@<SCITEGIC>MOL_PROPERTY
Grad RMS
SciTegic.value.DoubleValue
0.000000

@<SCITEGIC>MOL_PROPERTY
U
SciTegic.value.DoubleValue
49.216

@<SCITEGIC>MOL_PROPERTY
W
SciTegic.value.DoubleValue
-58.183

@<SCITEGIC>MOL_PROPERTY
W(PB)
SciTegic.value.DoubleValue
-60.064

@<SCITEGIC>MOL_PROPERTY
W(SA)
SciTegic.value.DoubleValue
1.881

@<SCITEGIC>MOL_PROPERTY
Valence
SciTegic.value.DoubleValue
2.929

@<SCITEGIC>MOL_PROPERTY
Coulomb
SciTegic.value.DoubleValue
46.006

@<SCITEGIC>MOL_PROPERTY
VdW
SciTegic.value.DoubleValue
0.281

@<SCITEGIC>MOL_PROPERTY
VdW6
SciTegic.value.DoubleValue
-4.909

@<SCITEGIC>MOL_PROPERTY
VdW12
SciTegic.value.DoubleValue
5.190

@<SCITEGIC>MOL_PROPERTY
Bond
SciTegic.value.DoubleValue
0.156

@<SCITEGIC>MOL_PROPERTY
Angle
SciTegic.value.DoubleValue
0.974

@<SCITEGIC>MOL_PROPERTY
Pdih
SciTegic.value.DoubleValue
1.799

@<SCITEGIC>MOL_PROPERTY
Idih
SciTegic.value.DoubleValue
0.000

@<SCITEGIC>MOL_PROPERTY
Tether
SciTegic.value.DoubleValue
0.000

@<TRIPOS>MOLECULE
guest-s11_confgen4.mol2 : confsearch ligand conformer 922
          20          19           1
SMALL
USER_CHARGES
 
@<TRIPOS>ATOM
       1    N1      19.160511   19.197485   20.322326 N.4        1 MOL1        -0.5919
       2    H1      19.019815   18.404439   20.953444 H          1 MOL1         0.3682
       3    H2      18.307568   19.764723   20.354451 H          1 MOL1         0.3682
       4    H3      19.228698   18.817837   19.372136 H          1 MOL1         0.3682
       5    C1      20.388557   20.006697   20.693337 C.3        1 MOL1         0.0252
       6    H4      20.466729   20.818101   19.964592 H          1 MOL1         0.0971
       7    H5      21.271052   19.370267   20.586099 H          1 MOL1         0.0971
       8    C2      20.347580   20.610831   22.112781 C.3        1 MOL1        -0.1369
       9    H6      21.034070   21.467737   22.130501 H          1 MOL1         0.0997
      10    H7      19.349898   21.020654   22.318912 H          1 MOL1         0.0997
      11    C3      20.775462   19.636879   23.240658 C.3        1 MOL1        -0.1329
      12    H8      20.819996   20.202448   24.181736 H          1 MOL1         0.0997
      13    H9      21.797592   19.281707   23.049433 H          1 MOL1         0.0997
      14    C4      19.835202   18.423695   23.431473 C.3        1 MOL1        -0.1305
      15    H10     18.794532   18.766919   23.516003 H          1 MOL1         0.0997
      16    H11     19.891869   17.762815   22.557472 H          1 MOL1         0.0997
      17    C5      20.207018   17.608628   24.688626 C.3        1 MOL1        -0.2320
      18    H12     20.125562   18.221334   25.595918 H          1 MOL1         0.1008
      19    H13     19.537105   16.746710   24.804229 H          1 MOL1         0.1008
      20    H14     21.235256   17.229478   24.623492 H          1 MOL1         0.1008
@<TRIPOS>BOND
    1     1     2    1
    2     1     3    1
    3     1     4    1
    4     1     5    1
    5     5     6    1
    6     5     7    1
    7     5     8    1
    8     8     9    1
    9     8    10    1
   10     8    11    1
   11    11    12    1
   12    11    13    1
   13    11    14    1
   14    14    15    1
   15    14    16    1
   16    14    17    1
   17    17    18    1
   18    17    19    1
   19    17    20    1
@<TRIPOS>SUBSTRUCTURE
       1 MOL1            1 RESIDUE      1      MOL     
@<SCITEGIC>MOL_PROPERTY
VConf Rank
SciTegic.value.IntegerValue
922

@<SCITEGIC>MOL_PROPERTY
Conf_Id
SciTegic.value.IntegerValue
26

@<SCITEGIC>MOL_PROPERTY
Delta U+W
SciTegic.value.DoubleValue
2.809

@<SCITEGIC>MOL_PROPERTY
U+W
SciTegic.value.DoubleValue
-8.969

@<SCITEGIC>MOL_PROPERTY
Grad RMS
SciTegic.value.DoubleValue
0.000000

@<SCITEGIC>MOL_PROPERTY
U
SciTegic.value.DoubleValue
49.216

@<SCITEGIC>MOL_PROPERTY
W
SciTegic.value.DoubleValue
-58.185

@<SCITEGIC>MOL_PROPERTY
W(PB)
SciTegic.value.DoubleValue
-60.088

@<SCITEGIC>MOL_PROPERTY
W(SA)
SciTegic.value.DoubleValue
1.903

@<SCITEGIC>MOL_PROPERTY
Valence
SciTegic.value.DoubleValue
2.929

@<SCITEGIC>MOL_PROPERTY
Coulomb
SciTegic.value.DoubleValue
46.006

@<SCITEGIC>MOL_PROPERTY
VdW
SciTegic.value.DoubleValue
0.281

@<SCITEGIC>MOL_PROPERTY
VdW6
SciTegic.value.DoubleValue
-4.909

@<SCITEGIC>MOL_PROPERTY
VdW12
SciTegic.value.DoubleValue
5.190

@<SCITEGIC>MOL_PROPERTY
Bond
SciTegic.value.DoubleValue
0.156

@<SCITEGIC>MOL_PROPERTY
Angle
SciTegic.value.DoubleValue
0.974

@<SCITEGIC>MOL_PROPERTY
Pdih
SciTegic.value.DoubleValue
1.799

@<SCITEGIC>MOL_PROPERTY
Idih
SciTegic.value.DoubleValue
0.000

@<SCITEGIC>MOL_PROPERTY
Tether
SciTegic.value.DoubleValue
0.000

@<TRIPOS>MOLECULE
guest-s11_confgen4.mol2 : confsearch ligand conformer 923
          20          19           1
SMALL
USER_CHARGES
 
@<TRIPOS>ATOM
       1    N1      21.579779   20.964220   23.203371 N.4        1 MOL1        -0.5919
       2    H1      22.073117   20.466593   22.456428 H          1 MOL1         0.3682
       3    H2      21.375621   21.906391   22.855995 H          1 MOL1         0.3682
       4    H3      22.239407   21.069401   23.981277 H          1 MOL1         0.3682
       5    C1      20.320119   20.234287   23.626990 C.3        1 MOL1         0.0252
       6    H4      19.864726   20.801978   24.442989 H          1 MOL1         0.0971
       7    H5      20.609483   19.254545   24.015970 H          1 MOL1         0.0971
       8    C2      19.293173   20.059444   22.489842 C.3        1 MOL1        -0.1369
       9    H6      18.387608   19.593925   22.899446 H          1 MOL1         0.0997
      10    H7      18.984004   21.049546   22.129634 H          1 MOL1         0.0997
      11    C3      19.814176   19.220673   21.293174 C.3        1 MOL1        -0.1329
      12    H8      20.617650   19.771331   20.785815 H          1 MOL1         0.0997
      13    H9      19.008315   19.122609   20.552789 H          1 MOL1         0.0997
      14    C4      20.331565   17.807687   21.665747 C.3        1 MOL1        -0.1305
      15    H10     20.693539   17.314765   20.752591 H          1 MOL1         0.0997
      16    H11     21.201583   17.884524   22.331826 H          1 MOL1         0.0997
      17    C5      19.254322   16.913307   22.320326 C.3        1 MOL1        -0.2320
      18    H12     18.365644   16.833466   21.680921 H          1 MOL1         0.1008
      19    H13     19.642891   15.899639   22.482739 H          1 MOL1         0.1008
      20    H14     18.942148   17.307063   23.295572 H          1 MOL1         0.1008
@<TRIPOS>BOND
    1     1     2    1
    2     1     3    1
    3     1     4    1
    4     1     5    1
    5     5     6    1
    6     5     7    1
    7     5     8    1
    8     8     9    1
    9     8    10    1
   10     8    11    1
   11    11    12    1
   12    11    13    1
   13    11    14    1
   14    14    15    1
   15    14    16    1
   16    14    17    1
   17    17    18    1
   18    17    19    1
   19    17    20    1
@<TRIPOS>SUBSTRUCTURE
       1 MOL1            1 RESIDUE      1      MOL     
@<SCITEGIC>MOL_PROPERTY
VConf Rank
SciTegic.value.IntegerValue
923

@<SCITEGIC>MOL_PROPERTY
Conf_Id
SciTegic.value.IntegerValue
2

@<SCITEGIC>MOL_PROPERTY
Delta U+W
SciTegic.value.DoubleValue
0.994

@<SCITEGIC>MOL_PROPERTY
U+W
SciTegic.value.DoubleValue
-10.784

@<SCITEGIC>MOL_PROPERTY
Grad RMS
SciTegic.value.DoubleValue
0.000000

@<SCITEGIC>MOL_PROPERTY
U
SciTegic.value.DoubleValue
47.562

@<SCITEGIC>MOL_PROPERTY
W
SciTegic.value.DoubleValue
-58.346

@<SCITEGIC>MOL_PROPERTY
W(PB)
SciTegic.value.DoubleValue
-60.221

@<SCITEGIC>MOL_PROPERTY
W(SA)
SciTegic.value.DoubleValue
1.875

@<SCITEGIC>MOL_PROPERTY
Valence
SciTegic.value.DoubleValue
2.149

@<SCITEGIC>MOL_PROPERTY
Coulomb
SciTegic.value.DoubleValue
45.034

@<SCITEGIC>MOL_PROPERTY
VdW
SciTegic.value.DoubleValue
0.378

@<SCITEGIC>MOL_PROPERTY
VdW6
SciTegic.value.DoubleValue
-5.599

@<SCITEGIC>MOL_PROPERTY
VdW12
SciTegic.value.DoubleValue
5.977

@<SCITEGIC>MOL_PROPERTY
Bond
SciTegic.value.DoubleValue
0.185

@<SCITEGIC>MOL_PROPERTY
Angle
SciTegic.value.DoubleValue
0.935

@<SCITEGIC>MOL_PROPERTY
Pdih
SciTegic.value.DoubleValue
1.028

@<SCITEGIC>MOL_PROPERTY
Idih
SciTegic.value.DoubleValue
0.000

@<SCITEGIC>MOL_PROPERTY
Tether
SciTegic.value.DoubleValue
0.000

@<TRIPOS>MOLECULE
guest-s11_confgen4.mol2 : confsearch ligand conformer 924
          20          19           1
SMALL
USER_CHARGES
 
@<TRIPOS>ATOM
       1    N1      20.563363   20.042965   24.649464 N.4        1 MOL1        -0.5919
       2    H1      19.746235   20.387483   25.162931 H          1 MOL1         0.3682
       3    H2      20.583056   19.024952   24.759924 H          1 MOL1         0.3682
       4    H3      21.392707   20.413167   25.125330 H          1 MOL1         0.3682
       5    C1      20.523422   20.448173   23.188913 C.3        1 MOL1         0.0252
       6    H4      21.433948   20.080016   22.708980 H          1 MOL1         0.0971
       7    H5      20.535534   21.540654   23.145955 H          1 MOL1         0.0971
       8    C2      19.287384   19.920003   22.432914 C.3        1 MOL1        -0.1369
       9    H6      18.380064   20.322829   22.902105 H          1 MOL1         0.0997
      10    H7      19.299325   20.321214   21.411435 H          1 MOL1         0.0997
      11    C3      19.192363   18.372261   22.383353 C.3        1 MOL1        -0.1329
      12    H8      18.304667   18.091120   21.800124 H          1 MOL1         0.0997
      13    H9      19.016103   17.986324   23.396365 H          1 MOL1         0.0997
      14    C4      20.434333   17.663324   21.785059 C.3        1 MOL1        -0.1305
      15    H10     21.318008   17.852711   22.409356 H          1 MOL1         0.0997
      16    H11     20.268418   16.577424   21.818842 H          1 MOL1         0.0997
      17    C5      20.731993   18.076004   20.325630 C.3        1 MOL1        -0.2320
      18    H12     21.016530   19.133267   20.256093 H          1 MOL1         0.1008
      19    H13     21.562279   17.483449   19.920180 H          1 MOL1         0.1008
      20    H14     19.857478   17.911936   19.682772 H          1 MOL1         0.1008
@<TRIPOS>BOND
    1     1     2    1
    2     1     3    1
    3     1     4    1
    4     1     5    1
    5     5     6    1
    6     5     7    1
    7     5     8    1
    8     8     9    1
    9     8    10    1
   10     8    11    1
   11    11    12    1
   12    11    13    1
   13    11    14    1
   14    14    15    1
   15    14    16    1
   16    14    17    1
   17    17    18    1
   18    17    19    1
   19    17    20    1
@<TRIPOS>SUBSTRUCTURE
       1 MOL1            1 RESIDUE      1      MOL     
@<SCITEGIC>MOL_PROPERTY
VConf Rank
SciTegic.value.IntegerValue
924

@<SCITEGIC>MOL_PROPERTY
Conf_Id
SciTegic.value.IntegerValue
1

@<SCITEGIC>MOL_PROPERTY
Delta U+W
SciTegic.value.DoubleValue
1.032

@<SCITEGIC>MOL_PROPERTY
U+W
SciTegic.value.DoubleValue
-10.746

@<SCITEGIC>MOL_PROPERTY
Grad RMS
SciTegic.value.DoubleValue
0.000000

@<SCITEGIC>MOL_PROPERTY
U
SciTegic.value.DoubleValue
47.562

@<SCITEGIC>MOL_PROPERTY
W
SciTegic.value.DoubleValue
-58.308

@<SCITEGIC>MOL_PROPERTY
W(PB)
SciTegic.value.DoubleValue
-60.184

@<SCITEGIC>MOL_PROPERTY
W(SA)
SciTegic.value.DoubleValue
1.877

@<SCITEGIC>MOL_PROPERTY
Valence
SciTegic.value.DoubleValue
2.149

@<SCITEGIC>MOL_PROPERTY
Coulomb
SciTegic.value.DoubleValue
45.035

@<SCITEGIC>MOL_PROPERTY
VdW
SciTegic.value.DoubleValue
0.378

@<SCITEGIC>MOL_PROPERTY
VdW6
SciTegic.value.DoubleValue
-5.599

@<SCITEGIC>MOL_PROPERTY
VdW12
SciTegic.value.DoubleValue
5.978

@<SCITEGIC>MOL_PROPERTY
Bond
SciTegic.value.DoubleValue
0.185

@<SCITEGIC>MOL_PROPERTY
Angle
SciTegic.value.DoubleValue
0.935

@<SCITEGIC>MOL_PROPERTY
Pdih
SciTegic.value.DoubleValue
1.028

@<SCITEGIC>MOL_PROPERTY
Idih
SciTegic.value.DoubleValue
0.000

@<SCITEGIC>MOL_PROPERTY
Tether
SciTegic.value.DoubleValue
0.000

@<TRIPOS>MOLECULE
guest-s11_confgen4.mol2 : confsearch ligand conformer 925
          20          19           1
SMALL
USER_CHARGES
 
@<TRIPOS>ATOM
       1    N1      22.385683   18.799239   23.341854 N.4        1 MOL1        -0.5919
       2    H1      22.504049   18.699782   24.354863 H          1 MOL1         0.3682
       3    H2      22.048138   17.900021   22.986672 H          1 MOL1         0.3682
       4    H3      23.319940   18.945921   22.945629 H          1 MOL1         0.3682
       5    C1      21.441580   19.933438   22.992540 C.3        1 MOL1         0.0252
       6    H4      21.386505   20.002116   21.904987 H          1 MOL1         0.0971
       7    H5      21.888266   20.859124   23.365502 H          1 MOL1         0.0971
       8    C2      20.028429   19.775929   23.593297 C.3        1 MOL1        -0.1369
       9    H6      20.128766   19.700649   24.684207 H          1 MOL1         0.0997
      10    H7      19.450278   20.690699   23.407403 H          1 MOL1         0.0997
      11    C3      19.235985   18.545168   23.076011 C.3        1 MOL1        -0.1329
      12    H8      18.477800   18.292117   23.830031 H          1 MOL1         0.0997
      13    H9      19.887702   17.664438   23.010415 H          1 MOL1         0.0997
      14    C4      18.496803   18.758526   21.729861 C.3        1 MOL1        -0.1305
      15    H10     17.902302   17.858926   21.517172 H          1 MOL1         0.0997
      16    H11     17.775061   19.581276   21.829619 H          1 MOL1         0.0997
      17    C5      19.422577   19.030816   20.523738 C.3        1 MOL1        -0.2320
      18    H12     20.227751   18.287352   20.462790 H          1 MOL1         0.1008
      19    H13     18.852470   18.984732   19.586837 H          1 MOL1         0.1008
      20    H14     19.869203   20.030492   20.580561 H          1 MOL1         0.1008
@<TRIPOS>BOND
    1     1     2    1
    2     1     3    1
    3     1     4    1
    4     1     5    1
    5     5     6    1
    6     5     7    1
    7     5     8    1
    8     8     9    1
    9     8    10    1
   10     8    11    1
   11    11    12    1
   12    11    13    1
   13    11    14    1
   14    14    15    1
   15    14    16    1
   16    14    17    1
   17    17    18    1
   18    17    19    1
   19    17    20    1
@<TRIPOS>SUBSTRUCTURE
       1 MOL1            1 RESIDUE      1      MOL     
@<SCITEGIC>MOL_PROPERTY
VConf Rank
SciTegic.value.IntegerValue
925

@<SCITEGIC>MOL_PROPERTY
Conf_Id
SciTegic.value.IntegerValue
80

@<SCITEGIC>MOL_PROPERTY
Delta U+W
SciTegic.value.DoubleValue
2.920

@<SCITEGIC>MOL_PROPERTY
U+W
SciTegic.value.DoubleValue
-8.857

@<SCITEGIC>MOL_PROPERTY
Grad RMS
SciTegic.value.DoubleValue
0.000000

@<SCITEGIC>MOL_PROPERTY
U
SciTegic.value.DoubleValue
49.434

@<SCITEGIC>MOL_PROPERTY
W
SciTegic.value.DoubleValue
-58.292

@<SCITEGIC>MOL_PROPERTY
W(PB)
SciTegic.value.DoubleValue
-60.170

@<SCITEGIC>MOL_PROPERTY
W(SA)
SciTegic.value.DoubleValue
1.879

@<SCITEGIC>MOL_PROPERTY
Valence
SciTegic.value.DoubleValue
3.798

@<SCITEGIC>MOL_PROPERTY
Coulomb
SciTegic.value.DoubleValue
45.253

@<SCITEGIC>MOL_PROPERTY
VdW
SciTegic.value.DoubleValue
0.384

@<SCITEGIC>MOL_PROPERTY
VdW6
SciTegic.value.DoubleValue
-5.595

@<SCITEGIC>MOL_PROPERTY
VdW12
SciTegic.value.DoubleValue
5.979

@<SCITEGIC>MOL_PROPERTY
Bond
SciTegic.value.DoubleValue
0.198

@<SCITEGIC>MOL_PROPERTY
Angle
SciTegic.value.DoubleValue
1.368

@<SCITEGIC>MOL_PROPERTY
Pdih
SciTegic.value.DoubleValue
2.231

@<SCITEGIC>MOL_PROPERTY
Idih
SciTegic.value.DoubleValue
0.000

@<SCITEGIC>MOL_PROPERTY
Tether
SciTegic.value.DoubleValue
0.000

@<TRIPOS>MOLECULE
guest-s11_confgen4.mol2 : confsearch ligand conformer 926
          20          19           1
SMALL
USER_CHARGES
 
@<TRIPOS>ATOM
       1    N1      22.253106   18.227021   21.957926 N.4        1 MOL1        -0.5919
       2    H1      22.606064   18.308378   20.999337 H          1 MOL1         0.3682
       3    H2      23.031585   17.891307   22.534651 H          1 MOL1         0.3682
       4    H3      21.542033   17.490093   21.957295 H          1 MOL1         0.3682
       5    C1      21.700236   19.543236   22.469463 C.3        1 MOL1         0.0252
       6    H4      22.523265   20.262977   22.480424 H          1 MOL1         0.0971
       7    H5      21.372686   19.392718   23.499304 H          1 MOL1         0.0971
       8    C2      20.545362   20.108560   21.615412 C.3        1 MOL1        -0.1369
       9    H6      20.290312   21.115963   21.969963 H          1 MOL1         0.0997
      10    H7      20.912245   20.235707   20.588256 H          1 MOL1         0.0997
      11    C3      19.267173   19.227811   21.586417 C.3        1 MOL1        -0.1329
      12    H8      19.530106   18.166532   21.490119 H          1 MOL1         0.0997
      13    H9      18.709237   19.474693   20.672535 H          1 MOL1         0.0997
      14    C4      18.304186   19.428262   22.784965 C.3        1 MOL1        -0.1305
      15    H10     17.967966   20.473989   22.819485 H          1 MOL1         0.0997
      16    H11     17.402116   18.826375   22.606222 H          1 MOL1         0.0997
      17    C5      18.893560   19.032690   24.156858 C.3        1 MOL1        -0.2320
      18    H12     19.654119   19.750131   24.486828 H          1 MOL1         0.1008
      19    H13     18.106367   19.022062   24.921805 H          1 MOL1         0.1008
      20    H14     19.342807   18.031741   24.124614 H          1 MOL1         0.1008
@<TRIPOS>BOND
    1     1     2    1
    2     1     3    1
    3     1     4    1
    4     1     5    1
    5     5     6    1
    6     5     7    1
    7     5     8    1
    8     8     9    1
    9     8    10    1
   10     8    11    1
   11    11    12    1
   12    11    13    1
   13    11    14    1
   14    14    15    1
   15    14    16    1
   16    14    17    1
   17    17    18    1
   18    17    19    1
   19    17    20    1
@<TRIPOS>SUBSTRUCTURE
       1 MOL1            1 RESIDUE      1      MOL     
@<SCITEGIC>MOL_PROPERTY
VConf Rank
SciTegic.value.IntegerValue
926

@<SCITEGIC>MOL_PROPERTY
Conf_Id
SciTegic.value.IntegerValue
65

@<SCITEGIC>MOL_PROPERTY
Delta U+W
SciTegic.value.DoubleValue
2.949

@<SCITEGIC>MOL_PROPERTY
U+W
SciTegic.value.DoubleValue
-8.829

@<SCITEGIC>MOL_PROPERTY
Grad RMS
SciTegic.value.DoubleValue
0.000000

@<SCITEGIC>MOL_PROPERTY
U
SciTegic.value.DoubleValue
49.435

@<SCITEGIC>MOL_PROPERTY
W
SciTegic.value.DoubleValue
-58.263

@<SCITEGIC>MOL_PROPERTY
W(PB)
SciTegic.value.DoubleValue
-60.125

@<SCITEGIC>MOL_PROPERTY
W(SA)
SciTegic.value.DoubleValue
1.862

@<SCITEGIC>MOL_PROPERTY
Valence
SciTegic.value.DoubleValue
3.797

@<SCITEGIC>MOL_PROPERTY
Coulomb
SciTegic.value.DoubleValue
45.253

@<SCITEGIC>MOL_PROPERTY
VdW
SciTegic.value.DoubleValue
0.384

@<SCITEGIC>MOL_PROPERTY
VdW6
SciTegic.value.DoubleValue
-5.596

@<SCITEGIC>MOL_PROPERTY
VdW12
SciTegic.value.DoubleValue
5.980

@<SCITEGIC>MOL_PROPERTY
Bond
SciTegic.value.DoubleValue
0.198

@<SCITEGIC>MOL_PROPERTY
Angle
SciTegic.value.DoubleValue
1.369

@<SCITEGIC>MOL_PROPERTY
Pdih
SciTegic.value.DoubleValue
2.230

@<SCITEGIC>MOL_PROPERTY
Idih
SciTegic.value.DoubleValue
0.000

@<SCITEGIC>MOL_PROPERTY
Tether
SciTegic.value.DoubleValue
0.000

@<TRIPOS>MOLECULE
guest-s11_confgen4.mol2 : confsearch ligand conformer 927
          20          19           1
SMALL
USER_CHARGES
 
@<TRIPOS>ATOM
       1    N1      18.640561   20.543215   22.538928 N.4        1 MOL1        -0.5919
       2    H1      17.696313   20.601681   22.934729 H          1 MOL1         0.3682
       3    H2      19.291152   20.406889   23.318589 H          1 MOL1         0.3682
       4    H3      18.847475   21.457847   22.125356 H          1 MOL1         0.3682
       5    C1      18.756500   19.426014   21.520117 C.3        1 MOL1         0.0252
       6    H4      18.037963   19.642955   20.725032 H          1 MOL1         0.0971
       7    H5      18.462997   18.486173   21.995254 H          1 MOL1         0.0971
       8    C2      20.162679   19.284284   20.902878 C.3        1 MOL1        -0.1369
       9    H6      20.052318   18.779259   19.934074 H          1 MOL1         0.0997
      10    H7      20.571130   20.278077   20.676272 H          1 MOL1         0.0997
      11    C3      21.177086   18.468689   21.748836 C.3        1 MOL1        -0.1329
      12    H8      22.108611   18.402069   21.169745 H          1 MOL1         0.0997
      13    H9      20.825878   17.433314   21.858923 H          1 MOL1         0.0997
      14    C4      21.517829   19.065304   23.138248 C.3        1 MOL1        -0.1305
      15    H10     22.577074   18.866323   23.354265 H          1 MOL1         0.0997
      16    H11     21.420828   20.159179   23.121153 H          1 MOL1         0.0997
      17    C5      20.678756   18.452939   24.284888 C.3        1 MOL1        -0.2320
      18    H12     19.601215   18.545597   24.111926 H          1 MOL1         0.1008
      19    H13     20.902518   17.384135   24.398503 H          1 MOL1         0.1008
      20    H14     20.912542   18.942275   25.239391 H          1 MOL1         0.1008
@<TRIPOS>BOND
    1     1     2    1
    2     1     3    1
    3     1     4    1
    4     1     5    1
    5     5     6    1
    6     5     7    1
    7     5     8    1
    8     8     9    1
    9     8    10    1
   10     8    11    1
   11    11    12    1
   12    11    13    1
   13    11    14    1
   14    14    15    1
   15    14    16    1
   16    14    17    1
   17    17    18    1
   18    17    19    1
   19    17    20    1
@<TRIPOS>SUBSTRUCTURE
       1 MOL1            1 RESIDUE      1      MOL     
@<SCITEGIC>MOL_PROPERTY
VConf Rank
SciTegic.value.IntegerValue
927

@<SCITEGIC>MOL_PROPERTY
Conf_Id
SciTegic.value.IntegerValue
77

@<SCITEGIC>MOL_PROPERTY
Delta U+W
SciTegic.value.DoubleValue
5.366

@<SCITEGIC>MOL_PROPERTY
U+W
SciTegic.value.DoubleValue
-6.412

@<SCITEGIC>MOL_PROPERTY
Grad RMS
SciTegic.value.DoubleValue
0.000000

@<SCITEGIC>MOL_PROPERTY
U
SciTegic.value.DoubleValue
51.542

@<SCITEGIC>MOL_PROPERTY
W
SciTegic.value.DoubleValue
-57.954

@<SCITEGIC>MOL_PROPERTY
W(PB)
SciTegic.value.DoubleValue
-59.811

@<SCITEGIC>MOL_PROPERTY
W(SA)
SciTegic.value.DoubleValue
1.857

@<SCITEGIC>MOL_PROPERTY
Valence
SciTegic.value.DoubleValue
5.347

@<SCITEGIC>MOL_PROPERTY
Coulomb
SciTegic.value.DoubleValue
45.870

@<SCITEGIC>MOL_PROPERTY
VdW
SciTegic.value.DoubleValue
0.325

@<SCITEGIC>MOL_PROPERTY
VdW6
SciTegic.value.DoubleValue
-6.161

@<SCITEGIC>MOL_PROPERTY
VdW12
SciTegic.value.DoubleValue
6.486

@<SCITEGIC>MOL_PROPERTY
Bond
SciTegic.value.DoubleValue
0.201

@<SCITEGIC>MOL_PROPERTY
Angle
SciTegic.value.DoubleValue
1.484

@<SCITEGIC>MOL_PROPERTY
Pdih
SciTegic.value.DoubleValue
3.662

@<SCITEGIC>MOL_PROPERTY
Idih
SciTegic.value.DoubleValue
0.000

@<SCITEGIC>MOL_PROPERTY
Tether
SciTegic.value.DoubleValue
0.000

@<TRIPOS>MOLECULE
guest-s11_confgen4.mol2 : confsearch ligand conformer 928
          20          19           1
SMALL
USER_CHARGES
 
@<TRIPOS>ATOM
       1    N1      20.827472   17.265804   21.832647 N.4        1 MOL1        -0.5919
       2    H1      20.089142   16.630234   21.514330 H          1 MOL1         0.3682
       3    H2      20.812201   18.084004   21.216171 H          1 MOL1         0.3682
       4    H3      21.720543   16.784989   21.681241 H          1 MOL1         0.3682
       5    C1      20.640310   17.663357   23.284020 C.3        1 MOL1         0.0252
       6    H4      21.486168   18.285083   23.589279 H          1 MOL1         0.0971
       7    H5      20.666046   16.742675   23.873258 H          1 MOL1         0.0971
       8    C2      19.317196   18.404115   23.565190 C.3        1 MOL1        -0.1369
       9    H6      18.496833   17.920296   23.018626 H          1 MOL1         0.0997
      10    H7      19.082686   18.275385   24.630200 H          1 MOL1         0.0997
      11    C3      19.335343   19.927154   23.265382 C.3        1 MOL1        -0.1329
      12    H8      20.067184   20.427860   23.914357 H          1 MOL1         0.0997
      13    H9      18.357095   20.331379   23.560608 H          1 MOL1         0.0997
      14    C4      19.586236   20.311975   21.785016 C.3        1 MOL1        -0.1305
      15    H10     19.215365   19.524684   21.115023 H          1 MOL1         0.0997
      16    H11     18.989862   21.204845   21.549687 H          1 MOL1         0.0997
      17    C5      21.068021   20.641224   21.485466 C.3        1 MOL1        -0.2320
      18    H12     21.209038   20.853290   20.417607 H          1 MOL1         0.1008
      19    H13     21.385884   21.531665   22.043498 H          1 MOL1         0.1008
      20    H14     21.743247   19.823850   21.760354 H          1 MOL1         0.1008
@<TRIPOS>BOND
    1     1     2    1
    2     1     3    1
    3     1     4    1
    4     1     5    1
    5     5     6    1
    6     5     7    1
    7     5     8    1
    8     8     9    1
    9     8    10    1
   10     8    11    1
   11    11    12    1
   12    11    13    1
   13    11    14    1
   14    14    15    1
   15    14    16    1
   16    14    17    1
   17    17    18    1
   18    17    19    1
   19    17    20    1
@<TRIPOS>SUBSTRUCTURE
       1 MOL1            1 RESIDUE      1      MOL     
@<SCITEGIC>MOL_PROPERTY
VConf Rank
SciTegic.value.IntegerValue
928

@<SCITEGIC>MOL_PROPERTY
Conf_Id
SciTegic.value.IntegerValue
67

@<SCITEGIC>MOL_PROPERTY
Delta U+W
SciTegic.value.DoubleValue
5.353

@<SCITEGIC>MOL_PROPERTY
U+W
SciTegic.value.DoubleValue
-6.425

@<SCITEGIC>MOL_PROPERTY
Grad RMS
SciTegic.value.DoubleValue
0.000000

@<SCITEGIC>MOL_PROPERTY
U
SciTegic.value.DoubleValue
51.541

@<SCITEGIC>MOL_PROPERTY
W
SciTegic.value.DoubleValue
-57.966

@<SCITEGIC>MOL_PROPERTY
W(PB)
SciTegic.value.DoubleValue
-59.821

@<SCITEGIC>MOL_PROPERTY
W(SA)
SciTegic.value.DoubleValue
1.855

@<SCITEGIC>MOL_PROPERTY
Valence
SciTegic.value.DoubleValue
5.347

@<SCITEGIC>MOL_PROPERTY
Coulomb
SciTegic.value.DoubleValue
45.870

@<SCITEGIC>MOL_PROPERTY
VdW
SciTegic.value.DoubleValue
0.325

@<SCITEGIC>MOL_PROPERTY
VdW6
SciTegic.value.DoubleValue
-6.161

@<SCITEGIC>MOL_PROPERTY
VdW12
SciTegic.value.DoubleValue
6.486

@<SCITEGIC>MOL_PROPERTY
Bond
SciTegic.value.DoubleValue
0.201

@<SCITEGIC>MOL_PROPERTY
Angle
SciTegic.value.DoubleValue
1.485

@<SCITEGIC>MOL_PROPERTY
Pdih
SciTegic.value.DoubleValue
3.662

@<SCITEGIC>MOL_PROPERTY
Idih
SciTegic.value.DoubleValue
0.000

@<SCITEGIC>MOL_PROPERTY
Tether
SciTegic.value.DoubleValue
0.000

@<TRIPOS>MOLECULE
guest-s11_confgen4.mol2 : confsearch ligand conformer 929
          20          19           1
SMALL
USER_CHARGES
 
@<TRIPOS>ATOM
       1    N1      18.245577   17.236431   24.234548 N.4        1 MOL1        -0.5919
       2    H1      18.472831   16.344185   23.784391 H          1 MOL1         0.3682
       3    H2      18.095455   17.037627   25.229304 H          1 MOL1         0.3682
       4    H3      17.345289   17.545000   23.854214 H          1 MOL1         0.3682
       5    C1      19.333584   18.270241   24.024871 C.3        1 MOL1         0.0252
       6    H4      20.252539   17.890026   24.479268 H          1 MOL1         0.0971
       7    H5      19.040353   19.180951   24.554152 H          1 MOL1         0.0971
       8    C2      19.584473   18.591912   22.540672 C.3        1 MOL1        -0.1369
       9    H6      19.863086   17.671747   22.009881 H          1 MOL1         0.0997
      10    H7      18.655077   18.958229   22.084489 H          1 MOL1         0.0997
      11    C3      20.698966   19.648255   22.371039 C.3        1 MOL1        -0.1329
      12    H8      21.625871   19.280707   22.833151 H          1 MOL1         0.0997
      13    H9      20.419279   20.565683   22.907596 H          1 MOL1         0.0997
      14    C4      20.959646   19.979153   20.884402 C.3        1 MOL1        -0.1305
      15    H10     21.241786   19.064413   20.344312 H          1 MOL1         0.0997
      16    H11     20.035406   20.349298   20.418763 H          1 MOL1         0.0997
      17    C5      22.073856   21.034816   20.719808 C.3        1 MOL1        -0.2320
      18    H12     23.021099   20.679119   21.145750 H          1 MOL1         0.1008
      19    H13     22.244368   21.256316   19.658249 H          1 MOL1         0.1008
      20    H14     21.805251   21.974079   21.220657 H          1 MOL1         0.1008
@<TRIPOS>BOND
    1     1     2    1
    2     1     3    1
    3     1     4    1
    4     1     5    1
    5     5     6    1
    6     5     7    1
    7     5     8    1
    8     8     9    1
    9     8    10    1
   10     8    11    1
   11    11    12    1
   12    11    13    1
   13    11    14    1
   14    14    15    1
   15    14    16    1
   16    14    17    1
   17    17    18    1
   18    17    19    1
   19    17    20    1
@<TRIPOS>SUBSTRUCTURE
       1 MOL1            1 RESIDUE      1      MOL     
@<SCITEGIC>MOL_PROPERTY
VConf Rank
SciTegic.value.IntegerValue
929

@<SCITEGIC>MOL_PROPERTY
Conf_Id
SciTegic.value.IntegerValue
72

@<SCITEGIC>MOL_PROPERTY
Delta U+W
SciTegic.value.DoubleValue
0.000

@<SCITEGIC>MOL_PROPERTY
U+W
SciTegic.value.DoubleValue
-11.778

@<SCITEGIC>MOL_PROPERTY
Grad RMS
SciTegic.value.DoubleValue
0.000000

@<SCITEGIC>MOL_PROPERTY
U
SciTegic.value.DoubleValue
45.772

@<SCITEGIC>MOL_PROPERTY
W
SciTegic.value.DoubleValue
-57.550

@<SCITEGIC>MOL_PROPERTY
W(PB)
SciTegic.value.DoubleValue
-59.511

@<SCITEGIC>MOL_PROPERTY
W(SA)
SciTegic.value.DoubleValue
1.961

@<SCITEGIC>MOL_PROPERTY
Valence
SciTegic.value.DoubleValue
1.299

@<SCITEGIC>MOL_PROPERTY
Coulomb
SciTegic.value.DoubleValue
44.177

@<SCITEGIC>MOL_PROPERTY
VdW
SciTegic.value.DoubleValue
0.297

@<SCITEGIC>MOL_PROPERTY
VdW6
SciTegic.value.DoubleValue
-3.490

@<SCITEGIC>MOL_PROPERTY
VdW12
SciTegic.value.DoubleValue
3.786

@<SCITEGIC>MOL_PROPERTY
Bond
SciTegic.value.DoubleValue
0.096

@<SCITEGIC>MOL_PROPERTY
Angle
SciTegic.value.DoubleValue
0.381

@<SCITEGIC>MOL_PROPERTY
Pdih
SciTegic.value.DoubleValue
0.822

@<SCITEGIC>MOL_PROPERTY
Idih
SciTegic.value.DoubleValue
0.000

@<SCITEGIC>MOL_PROPERTY
Tether
SciTegic.value.DoubleValue
0.000

@<TRIPOS>MOLECULE
guest-s11_confgen4.mol2 : confsearch ligand conformer 930
          20          19           1
SMALL
USER_CHARGES
 
@<TRIPOS>ATOM
       1    N1      19.472632   20.763064   24.956388 N.4        1 MOL1        -0.5919
       2    H1      20.468027   20.938749   25.125683 H          1 MOL1         0.3682
       3    H2      19.094400   21.595073   24.492637 H          1 MOL1         0.3682
       4    H3      19.020874   20.703735   25.875070 H          1 MOL1         0.3682
       5    C1      19.250014   19.507545   24.137434 C.3        1 MOL1         0.0252
       6    H4      18.171866   19.366351   24.022732 H          1 MOL1         0.0971
       7    H5      19.648820   18.660722   24.702545 H          1 MOL1         0.0971
       8    C2      19.915334   19.563662   22.750543 C.3        1 MOL1        -0.1369
       9    H6      19.523717   20.424587   22.192641 H          1 MOL1         0.0997
      10    H7      20.993543   19.723242   22.877292 H          1 MOL1         0.0997
      11    C3      19.660625   18.264707   21.949938 C.3        1 MOL1        -0.1329
      12    H8      18.578123   18.081947   21.899641 H          1 MOL1         0.0997
      13    H9      20.093312   17.408589   22.486064 H          1 MOL1         0.0997
      14    C4      20.220171   18.308346   20.507137 C.3        1 MOL1        -0.1305
      15    H10     19.906484   17.396654   19.979540 H          1 MOL1         0.0997
      16    H11     19.771802   19.149223   19.959628 H          1 MOL1         0.0997
      17    C5      21.761348   18.412420   20.448222 C.3        1 MOL1        -0.2320
      18    H12     22.234297   17.598153   21.012406 H          1 MOL1         0.1008
      19    H13     22.111214   18.347853   19.409773 H          1 MOL1         0.1008
      20    H14     22.117425   19.366275   20.856624 H          1 MOL1         0.1008
@<TRIPOS>BOND
    1     1     2    1
    2     1     3    1
    3     1     4    1
    4     1     5    1
    5     5     6    1
    6     5     7    1
    7     5     8    1
    8     8     9    1
    9     8    10    1
   10     8    11    1
   11    11    12    1
   12    11    13    1
   13    11    14    1
   14    14    15    1
   15    14    16    1
   16    14    17    1
   17    17    18    1
   18    17    19    1
   19    17    20    1
@<TRIPOS>SUBSTRUCTURE
       1 MOL1            1 RESIDUE      1      MOL     
@<SCITEGIC>MOL_PROPERTY
VConf Rank
SciTegic.value.IntegerValue
930

@<SCITEGIC>MOL_PROPERTY
Conf_Id
SciTegic.value.IntegerValue
42

@<SCITEGIC>MOL_PROPERTY
Delta U+W
SciTegic.value.DoubleValue
0.508

@<SCITEGIC>MOL_PROPERTY
U+W
SciTegic.value.DoubleValue
-11.270

@<SCITEGIC>MOL_PROPERTY
Grad RMS
SciTegic.value.DoubleValue
0.000000

@<SCITEGIC>MOL_PROPERTY
U
SciTegic.value.DoubleValue
46.486

@<SCITEGIC>MOL_PROPERTY
W
SciTegic.value.DoubleValue
-57.756

@<SCITEGIC>MOL_PROPERTY
W(PB)
SciTegic.value.DoubleValue
-59.705

@<SCITEGIC>MOL_PROPERTY
W(SA)
SciTegic.value.DoubleValue
1.949

@<SCITEGIC>MOL_PROPERTY
Valence
SciTegic.value.DoubleValue
1.806

@<SCITEGIC>MOL_PROPERTY
Coulomb
SciTegic.value.DoubleValue
44.248

@<SCITEGIC>MOL_PROPERTY
VdW
SciTegic.value.DoubleValue
0.433

@<SCITEGIC>MOL_PROPERTY
VdW6
SciTegic.value.DoubleValue
-4.089

@<SCITEGIC>MOL_PROPERTY
VdW12
SciTegic.value.DoubleValue
4.522

@<SCITEGIC>MOL_PROPERTY
Bond
SciTegic.value.DoubleValue
0.131

@<SCITEGIC>MOL_PROPERTY
Angle
SciTegic.value.DoubleValue
0.628

@<SCITEGIC>MOL_PROPERTY
Pdih
SciTegic.value.DoubleValue
1.047

@<SCITEGIC>MOL_PROPERTY
Idih
SciTegic.value.DoubleValue
0.000

@<SCITEGIC>MOL_PROPERTY
Tether
SciTegic.value.DoubleValue
0.000

@<TRIPOS>MOLECULE
guest-s11_confgen4.mol2 : confsearch ligand conformer 931
          20          19           1
SMALL
USER_CHARGES
 
@<TRIPOS>ATOM
       1    N1      19.381234   16.175963   22.130106 N.4        1 MOL1        -0.5919
       2    H1      18.931136   16.267569   21.213927 H          1 MOL1         0.3682
       3    H2      20.356211   15.908894   21.961498 H          1 MOL1         0.3682
       4    H3      18.933671   15.383829   22.603174 H          1 MOL1         0.3682
       5    C1      19.275227   17.450322   22.943342 C.3        1 MOL1         0.0252
       6    H4      19.746823   17.271891   23.913531 H          1 MOL1         0.0971
       7    H5      18.214550   17.656806   23.110140 H          1 MOL1         0.0971
       8    C2      19.937303   18.660722   22.260803 C.3        1 MOL1        -0.1369
       9    H6      20.996333   18.435623   22.082323 H          1 MOL1         0.0997
      10    H7      19.471540   18.826493   21.280294 H          1 MOL1         0.0997
      11    C3      19.803275   19.937715   23.123624 C.3        1 MOL1        -0.1329
      12    H8      20.309498   19.788053   24.087432 H          1 MOL1         0.0997
      13    H9      18.741802   20.103177   23.355228 H          1 MOL1         0.0997
      14    C4      20.361453   21.208353   22.437632 C.3        1 MOL1        -0.1305
      15    H10     19.841055   21.375306   21.484118 H          1 MOL1         0.0997
      16    H11     20.132873   22.078914   23.068357 H          1 MOL1         0.0997
      17    C5      21.887197   21.156215   22.194895 C.3        1 MOL1        -0.2320
      18    H12     22.154595   20.374835   21.472837 H          1 MOL1         0.1008
      19    H13     22.244949   22.112744   21.792381 H          1 MOL1         0.1008
      20    H14     22.429617   20.961989   23.129277 H          1 MOL1         0.1008
@<TRIPOS>BOND
    1     1     2    1
    2     1     3    1
    3     1     4    1
    4     1     5    1
    5     5     6    1
    6     5     7    1
    7     5     8    1
    8     8     9    1
    9     8    10    1
   10     8    11    1
   11    11    12    1
   12    11    13    1
   13    11    14    1
   14    14    15    1
   15    14    16    1
   16    14    17    1
   17    17    18    1
   18    17    19    1
   19    17    20    1
@<TRIPOS>SUBSTRUCTURE
       1 MOL1            1 RESIDUE      1      MOL     
@<SCITEGIC>MOL_PROPERTY
VConf Rank
SciTegic.value.IntegerValue
931

@<SCITEGIC>MOL_PROPERTY
Conf_Id
SciTegic.value.IntegerValue
41

@<SCITEGIC>MOL_PROPERTY
Delta U+W
SciTegic.value.DoubleValue
0.515

@<SCITEGIC>MOL_PROPERTY
U+W
SciTegic.value.DoubleValue
-11.263

@<SCITEGIC>MOL_PROPERTY
Grad RMS
SciTegic.value.DoubleValue
0.000000

@<SCITEGIC>MOL_PROPERTY
U
SciTegic.value.DoubleValue
46.486

@<SCITEGIC>MOL_PROPERTY
W
SciTegic.value.DoubleValue
-57.749

@<SCITEGIC>MOL_PROPERTY
W(PB)
SciTegic.value.DoubleValue
-59.685

@<SCITEGIC>MOL_PROPERTY
W(SA)
SciTegic.value.DoubleValue
1.936

@<SCITEGIC>MOL_PROPERTY
Valence
SciTegic.value.DoubleValue
1.806

@<SCITEGIC>MOL_PROPERTY
Coulomb
SciTegic.value.DoubleValue
44.248

@<SCITEGIC>MOL_PROPERTY
VdW
SciTegic.value.DoubleValue
0.433

@<SCITEGIC>MOL_PROPERTY
VdW6
SciTegic.value.DoubleValue
-4.089

@<SCITEGIC>MOL_PROPERTY
VdW12
SciTegic.value.DoubleValue
4.522

@<SCITEGIC>MOL_PROPERTY
Bond
SciTegic.value.DoubleValue
0.131

@<SCITEGIC>MOL_PROPERTY
Angle
SciTegic.value.DoubleValue
0.628

@<SCITEGIC>MOL_PROPERTY
Pdih
SciTegic.value.DoubleValue
1.047

@<SCITEGIC>MOL_PROPERTY
Idih
SciTegic.value.DoubleValue
0.000

@<SCITEGIC>MOL_PROPERTY
Tether
SciTegic.value.DoubleValue
0.000

@<TRIPOS>MOLECULE
guest-s11_confgen4.mol2 : confsearch ligand conformer 932
          20          19           1
SMALL
USER_CHARGES
 
@<TRIPOS>ATOM
       1    N1      17.946750   18.013135   21.209753 N.4        1 MOL1        -0.5919
       2    H1      16.938379   17.966576   21.029415 H          1 MOL1         0.3682
       3    H2      18.355261   18.592547   20.470604 H          1 MOL1         0.3682
       4    H3      18.314834   17.064363   21.089178 H          1 MOL1         0.3682
       5    C1      18.246502   18.564105   22.590602 C.3        1 MOL1         0.0252
       6    H4      17.744026   17.921669   23.318883 H          1 MOL1         0.0971
       7    H5      17.808768   19.563590   22.660323 H          1 MOL1         0.0971
       8    C2      19.750011   18.631982   22.923351 C.3        1 MOL1        -0.1369
       9    H6      19.850788   18.928171   23.974885 H          1 MOL1         0.0997
      10    H7      20.190331   17.629940   22.835494 H          1 MOL1         0.0997
      11    C3      20.518022   19.631291   22.021876 C.3        1 MOL1        -0.1329
      12    H8      20.086546   20.635834   22.132286 H          1 MOL1         0.0997
      13    H9      20.383517   19.351382   20.968707 H          1 MOL1         0.0997
      14    C4      22.036890   19.686041   22.316878 C.3        1 MOL1        -0.1305
      15    H10     22.475835   18.685942   22.194430 H          1 MOL1         0.0997
      16    H11     22.518684   20.326464   21.564765 H          1 MOL1         0.0997
      17    C5      22.372768   20.232967   23.723228 C.3        1 MOL1        -0.2320
      18    H12     22.019571   19.559549   24.513816 H          1 MOL1         0.1008
      19    H13     23.458485   20.340662   23.843929 H          1 MOL1         0.1008
      20    H14     21.918562   21.219539   23.882527 H          1 MOL1         0.1008
@<TRIPOS>BOND
    1     1     2    1
    2     1     3    1
    3     1     4    1
    4     1     5    1
    5     5     6    1
    6     5     7    1
    7     5     8    1
    8     8     9    1
    9     8    10    1
   10     8    11    1
   11    11    12    1
   12    11    13    1
   13    11    14    1
   14    14    15    1
   15    14    16    1
   16    14    17    1
   17    17    18    1
   18    17    19    1
   19    17    20    1
@<TRIPOS>SUBSTRUCTURE
       1 MOL1            1 RESIDUE      1      MOL     
@<SCITEGIC>MOL_PROPERTY
VConf Rank
SciTegic.value.IntegerValue
932

@<SCITEGIC>MOL_PROPERTY
Conf_Id
SciTegic.value.IntegerValue
33

@<SCITEGIC>MOL_PROPERTY
Delta U+W
SciTegic.value.DoubleValue
0.703

@<SCITEGIC>MOL_PROPERTY
U+W
SciTegic.value.DoubleValue
-11.075

@<SCITEGIC>MOL_PROPERTY
Grad RMS
SciTegic.value.DoubleValue
0.000000

@<SCITEGIC>MOL_PROPERTY
U
SciTegic.value.DoubleValue
47.080

@<SCITEGIC>MOL_PROPERTY
W
SciTegic.value.DoubleValue
-58.154

@<SCITEGIC>MOL_PROPERTY
W(PB)
SciTegic.value.DoubleValue
-60.053

@<SCITEGIC>MOL_PROPERTY
W(SA)
SciTegic.value.DoubleValue
1.899

@<SCITEGIC>MOL_PROPERTY
Valence
SciTegic.value.DoubleValue
1.943

@<SCITEGIC>MOL_PROPERTY
Coulomb
SciTegic.value.DoubleValue
44.572

@<SCITEGIC>MOL_PROPERTY
VdW
SciTegic.value.DoubleValue
0.565

@<SCITEGIC>MOL_PROPERTY
VdW6
SciTegic.value.DoubleValue
-4.575

@<SCITEGIC>MOL_PROPERTY
VdW12
SciTegic.value.DoubleValue
5.139

@<SCITEGIC>MOL_PROPERTY
Bond
SciTegic.value.DoubleValue
0.158

@<SCITEGIC>MOL_PROPERTY
Angle
SciTegic.value.DoubleValue
0.700

@<SCITEGIC>MOL_PROPERTY
Pdih
SciTegic.value.DoubleValue
1.085

@<SCITEGIC>MOL_PROPERTY
Idih
SciTegic.value.DoubleValue
0.000

@<SCITEGIC>MOL_PROPERTY
Tether
SciTegic.value.DoubleValue
0.000

@<TRIPOS>MOLECULE
guest-s11_confgen4.mol2 : confsearch ligand conformer 933
          20          19           1
SMALL
USER_CHARGES
 
@<TRIPOS>ATOM
       1    N1      17.797496   19.043789   21.006364 N.4        1 MOL1        -0.5919
       2    H1      17.251958   19.244965   20.161725 H          1 MOL1         0.3682
       3    H2      17.398465   18.197224   21.423851 H          1 MOL1         0.3682
       4    H3      17.627894   19.813009   21.660944 H          1 MOL1         0.3682
       5    C1      19.273169   18.879588   20.697191 C.3        1 MOL1         0.0252
       6    H4      19.628797   19.804551   20.235224 H          1 MOL1         0.0971
       7    H5      19.369429   18.074614   19.963467 H          1 MOL1         0.0971
       8    C2      20.137055   18.550349   21.930546 C.3        1 MOL1        -0.1369
       9    H6      19.766707   17.630606   22.402358 H          1 MOL1         0.0997
      10    H7      21.155517   18.336873   21.583024 H          1 MOL1         0.0997
      11    C3      20.167618   19.703637   22.965006 C.3        1 MOL1        -0.1329
      12    H8      19.142729   19.937559   23.282012 H          1 MOL1         0.0997
      13    H9      20.560335   20.614365   22.491914 H          1 MOL1         0.0997
      14    C4      21.001166   19.376905   24.228106 C.3        1 MOL1        -0.1305
      15    H10     20.877024   20.193823   24.952796 H          1 MOL1         0.0997
      16    H11     20.603698   18.474138   24.712767 H          1 MOL1         0.0997
      17    C5      22.508990   19.192459   23.941386 C.3        1 MOL1        -0.2320
      18    H12     22.923945   20.069604   23.428126 H          1 MOL1         0.1008
      19    H13     23.064406   19.059043   24.878755 H          1 MOL1         0.1008
      20    H14     22.697057   18.308633   23.319491 H          1 MOL1         0.1008
@<TRIPOS>BOND
    1     1     2    1
    2     1     3    1
    3     1     4    1
    4     1     5    1
    5     5     6    1
    6     5     7    1
    7     5     8    1
    8     8     9    1
    9     8    10    1
   10     8    11    1
   11    11    12    1
   12    11    13    1
   13    11    14    1
   14    14    15    1
   15    14    16    1
   16    14    17    1
   17    17    18    1
   18    17    19    1
   19    17    20    1
@<TRIPOS>SUBSTRUCTURE
       1 MOL1            1 RESIDUE      1      MOL     
@<SCITEGIC>MOL_PROPERTY
VConf Rank
SciTegic.value.IntegerValue
933

@<SCITEGIC>MOL_PROPERTY
Conf_Id
SciTegic.value.IntegerValue
24

@<SCITEGIC>MOL_PROPERTY
Delta U+W
SciTegic.value.DoubleValue
0.847

@<SCITEGIC>MOL_PROPERTY
U+W
SciTegic.value.DoubleValue
-10.931

@<SCITEGIC>MOL_PROPERTY
Grad RMS
SciTegic.value.DoubleValue
0.000000

@<SCITEGIC>MOL_PROPERTY
U
SciTegic.value.DoubleValue
47.080

@<SCITEGIC>MOL_PROPERTY
W
SciTegic.value.DoubleValue
-58.011

@<SCITEGIC>MOL_PROPERTY
W(PB)
SciTegic.value.DoubleValue
-59.914

@<SCITEGIC>MOL_PROPERTY
W(SA)
SciTegic.value.DoubleValue
1.903

@<SCITEGIC>MOL_PROPERTY
Valence
SciTegic.value.DoubleValue
1.943

@<SCITEGIC>MOL_PROPERTY
Coulomb
SciTegic.value.DoubleValue
44.572

@<SCITEGIC>MOL_PROPERTY
VdW
SciTegic.value.DoubleValue
0.565

@<SCITEGIC>MOL_PROPERTY
VdW6
SciTegic.value.DoubleValue
-4.575

@<SCITEGIC>MOL_PROPERTY
VdW12
SciTegic.value.DoubleValue
5.140

@<SCITEGIC>MOL_PROPERTY
Bond
SciTegic.value.DoubleValue
0.158

@<SCITEGIC>MOL_PROPERTY
Angle
SciTegic.value.DoubleValue
0.700

@<SCITEGIC>MOL_PROPERTY
Pdih
SciTegic.value.DoubleValue
1.085

@<SCITEGIC>MOL_PROPERTY
Idih
SciTegic.value.DoubleValue
0.000

@<SCITEGIC>MOL_PROPERTY
Tether
SciTegic.value.DoubleValue
0.000

@<TRIPOS>MOLECULE
guest-s11_confgen4.mol2 : confsearch ligand conformer 934
          20          19           1
SMALL
USER_CHARGES
 
@<TRIPOS>ATOM
       1    N1      18.064262   20.712252   21.492763 N.4        1 MOL1        -0.5919
       2    H1      17.232183   21.033287   21.998797 H          1 MOL1         0.3682
       3    H2      18.675985   21.526612   21.379473 H          1 MOL1         0.3682
       4    H3      17.753837   20.436022   20.555937 H          1 MOL1         0.3682
       5    C1      18.760262   19.577080   22.216156 C.3        1 MOL1         0.0252
       6    H4      18.044673   18.757985   22.327477 H          1 MOL1         0.0971
       7    H5      19.034447   19.932189   23.213003 H          1 MOL1         0.0971
       8    C2      20.016253   19.071231   21.481834 C.3        1 MOL1        -0.1369
       9    H6      19.736691   18.755996   20.467816 H          1 MOL1         0.0997
      10    H7      20.731441   19.894925   21.361464 H          1 MOL1         0.0997
      11    C3      20.695195   17.881418   22.205283 C.3        1 MOL1        -0.1329
      12    H8      21.572370   17.564846   21.624242 H          1 MOL1         0.0997
      13    H9      20.007410   17.024420   22.204764 H          1 MOL1         0.0997
      14    C4      21.131174   18.170031   23.664683 C.3        1 MOL1        -0.1305
      15    H10     20.252543   18.385839   24.287749 H          1 MOL1         0.0997
      16    H11     21.580002   17.258155   24.082914 H          1 MOL1         0.0997
      17    C5      22.149954   19.326209   23.784465 C.3        1 MOL1        -0.2320
      18    H12     22.495609   19.428162   24.821303 H          1 MOL1         0.1008
      19    H13     23.029844   19.144151   23.153891 H          1 MOL1         0.1008
      20    H14     21.707148   20.285479   23.488899 H          1 MOL1         0.1008
@<TRIPOS>BOND
    1     1     2    1
    2     1     3    1
    3     1     4    1
    4     1     5    1
    5     5     6    1
    6     5     7    1
    7     5     8    1
    8     8     9    1
    9     8    10    1
   10     8    11    1
   11    11    12    1
   12    11    13    1
   13    11    14    1
   14    14    15    1
   15    14    16    1
   16    14    17    1
   17    17    18    1
   18    17    19    1
   19    17    20    1
@<TRIPOS>SUBSTRUCTURE
       1 MOL1            1 RESIDUE      1      MOL     
@<SCITEGIC>MOL_PROPERTY
VConf Rank
SciTegic.value.IntegerValue
934

@<SCITEGIC>MOL_PROPERTY
Conf_Id
SciTegic.value.IntegerValue
64

@<SCITEGIC>MOL_PROPERTY
Delta U+W
SciTegic.value.DoubleValue
0.707

@<SCITEGIC>MOL_PROPERTY
U+W
SciTegic.value.DoubleValue
-11.070

@<SCITEGIC>MOL_PROPERTY
Grad RMS
SciTegic.value.DoubleValue
0.000000

@<SCITEGIC>MOL_PROPERTY
U
SciTegic.value.DoubleValue
47.077

@<SCITEGIC>MOL_PROPERTY
W
SciTegic.value.DoubleValue
-58.148

@<SCITEGIC>MOL_PROPERTY
W(PB)
SciTegic.value.DoubleValue
-60.054

@<SCITEGIC>MOL_PROPERTY
W(SA)
SciTegic.value.DoubleValue
1.906

@<SCITEGIC>MOL_PROPERTY
Valence
SciTegic.value.DoubleValue
2.039

@<SCITEGIC>MOL_PROPERTY
Coulomb
SciTegic.value.DoubleValue
44.655

@<SCITEGIC>MOL_PROPERTY
VdW
SciTegic.value.DoubleValue
0.383

@<SCITEGIC>MOL_PROPERTY
VdW6
SciTegic.value.DoubleValue
-4.912

@<SCITEGIC>MOL_PROPERTY
VdW12
SciTegic.value.DoubleValue
5.295

@<SCITEGIC>MOL_PROPERTY
Bond
SciTegic.value.DoubleValue
0.159

@<SCITEGIC>MOL_PROPERTY
Angle
SciTegic.value.DoubleValue
0.856

@<SCITEGIC>MOL_PROPERTY
Pdih
SciTegic.value.DoubleValue
1.024

@<SCITEGIC>MOL_PROPERTY
Idih
SciTegic.value.DoubleValue
0.000

@<SCITEGIC>MOL_PROPERTY
Tether
SciTegic.value.DoubleValue
0.000

@<TRIPOS>MOLECULE
guest-s11_confgen4.mol2 : confsearch ligand conformer 935
          20          19           1
SMALL
USER_CHARGES
 
@<TRIPOS>ATOM
       1    N1      22.643547   19.133431   23.743071 N.4        1 MOL1        -0.5919
       2    H1      23.318065   19.777869   23.318768 H          1 MOL1         0.3682
       3    H2      22.242154   19.610160   24.556604 H          1 MOL1         0.3682
       4    H3      23.179321   18.335411   24.100281 H          1 MOL1         0.3682
       5    C1      21.577371   18.700043   22.757286 C.3        1 MOL1         0.0252
       6    H4      20.915558   17.994870   23.266914 H          1 MOL1         0.0971
       7    H5      22.070767   18.175697   21.934485 H          1 MOL1         0.0971
       8    C2      20.752963   19.876448   22.201369 C.3        1 MOL1        -0.1369
       9    H6      20.264606   20.409061   23.027375 H          1 MOL1         0.0997
      10    H7      21.431630   20.598553   21.728363 H          1 MOL1         0.0997
      11    C3      19.695966   19.428989   21.160920 C.3        1 MOL1        -0.1329
      12    H8      20.212112   19.011509   20.285250 H          1 MOL1         0.0997
      13    H9      19.155358   20.314415   20.798943 H          1 MOL1         0.0997
      14    C4      18.672118   18.387074   21.679928 C.3        1 MOL1        -0.1305
      15    H10     17.987591   18.129989   20.859433 H          1 MOL1         0.0997
      16    H11     19.184043   17.452929   21.948410 H          1 MOL1         0.0997
      17    C5      17.841028   18.888564   22.882761 C.3        1 MOL1        -0.2320
      18    H12     17.334974   19.833601   22.646561 H          1 MOL1         0.1008
      19    H13     17.071066   18.153699   23.151159 H          1 MOL1         0.1008
      20    H14     18.468975   19.046320   23.768441 H          1 MOL1         0.1008
@<TRIPOS>BOND
    1     1     2    1
    2     1     3    1
    3     1     4    1
    4     1     5    1
    5     5     6    1
    6     5     7    1
    7     5     8    1
    8     8     9    1
    9     8    10    1
   10     8    11    1
   11    11    12    1
   12    11    13    1
   13    11    14    1
   14    14    15    1
   15    14    16    1
   16    14    17    1
   17    17    18    1
   18    17    19    1
   19    17    20    1
@<TRIPOS>SUBSTRUCTURE
       1 MOL1            1 RESIDUE      1      MOL     
@<SCITEGIC>MOL_PROPERTY
VConf Rank
SciTegic.value.IntegerValue
935

@<SCITEGIC>MOL_PROPERTY
Conf_Id
SciTegic.value.IntegerValue
22

@<SCITEGIC>MOL_PROPERTY
Delta U+W
SciTegic.value.DoubleValue
0.731

@<SCITEGIC>MOL_PROPERTY
U+W
SciTegic.value.DoubleValue
-11.047

@<SCITEGIC>MOL_PROPERTY
Grad RMS
SciTegic.value.DoubleValue
0.000000

@<SCITEGIC>MOL_PROPERTY
U
SciTegic.value.DoubleValue
47.078

@<SCITEGIC>MOL_PROPERTY
W
SciTegic.value.DoubleValue
-58.125

@<SCITEGIC>MOL_PROPERTY
W(PB)
SciTegic.value.DoubleValue
-60.031

@<SCITEGIC>MOL_PROPERTY
W(SA)
SciTegic.value.DoubleValue
1.906

@<SCITEGIC>MOL_PROPERTY
Valence
SciTegic.value.DoubleValue
2.039

@<SCITEGIC>MOL_PROPERTY
Coulomb
SciTegic.value.DoubleValue
44.655

@<SCITEGIC>MOL_PROPERTY
VdW
SciTegic.value.DoubleValue
0.383

@<SCITEGIC>MOL_PROPERTY
VdW6
SciTegic.value.DoubleValue
-4.913

@<SCITEGIC>MOL_PROPERTY
VdW12
SciTegic.value.DoubleValue
5.296

@<SCITEGIC>MOL_PROPERTY
Bond
SciTegic.value.DoubleValue
0.159

@<SCITEGIC>MOL_PROPERTY
Angle
SciTegic.value.DoubleValue
0.856

@<SCITEGIC>MOL_PROPERTY
Pdih
SciTegic.value.DoubleValue
1.024

@<SCITEGIC>MOL_PROPERTY
Idih
SciTegic.value.DoubleValue
0.000

@<SCITEGIC>MOL_PROPERTY
Tether
SciTegic.value.DoubleValue
0.000

@<TRIPOS>MOLECULE
guest-s11_confgen4.mol2 : confsearch ligand conformer 936
          20          19           1
SMALL
USER_CHARGES
 
@<TRIPOS>ATOM
       1    N1      20.934509   21.105558   20.664278 N.4        1 MOL1        -0.5919
       2    H1      21.944120   21.166091   20.829678 H          1 MOL1         0.3682
       3    H2      20.806088   20.799501   19.694666 H          1 MOL1         0.3682
       4    H3      20.565291   22.060224   20.725786 H          1 MOL1         0.3682
       5    C1      20.254377   20.173895   21.647150 C.3        1 MOL1         0.0252
       6    H4      19.182511   20.178530   21.431565 H          1 MOL1         0.0971
       7    H5      20.409251   20.579177   22.649660 H          1 MOL1         0.0971
       8    C2      20.790663   18.732704   21.583617 C.3        1 MOL1        -0.1369
       9    H6      20.738541   18.382146   20.544234 H          1 MOL1         0.0997
      10    H7      21.853338   18.725575   21.860123 H          1 MOL1         0.0997
      11    C3      20.013790   17.733283   22.477787 C.3        1 MOL1        -0.1329
      12    H8      20.421129   16.731382   22.283312 H          1 MOL1         0.0997
      13    H9      18.959853   17.689705   22.170105 H          1 MOL1         0.0997
      14    C4      20.115931   18.004216   24.001385 C.3        1 MOL1        -0.1305
      15    H10     20.004174   17.047008   24.529935 H          1 MOL1         0.0997
      16    H11     21.118851   18.374060   24.256550 H          1 MOL1         0.0997
      17    C5      19.034699   18.970328   24.540273 C.3        1 MOL1        -0.2320
      18    H12     19.135666   19.979435   24.127496 H          1 MOL1         0.1008
      19    H13     18.026961   18.604758   24.303994 H          1 MOL1         0.1008
      20    H14     19.108866   19.055036   25.632201 H          1 MOL1         0.1008
@<TRIPOS>BOND
    1     1     2    1
    2     1     3    1
    3     1     4    1
    4     1     5    1
    5     5     6    1
    6     5     7    1
    7     5     8    1
    8     8     9    1
    9     8    10    1
   10     8    11    1
   11    11    12    1
   12    11    13    1
   13    11    14    1
   14    14    15    1
   15    14    16    1
   16    14    17    1
   17    17    18    1
   18    17    19    1
   19    17    20    1
@<TRIPOS>SUBSTRUCTURE
       1 MOL1            1 RESIDUE      1      MOL     
@<SCITEGIC>MOL_PROPERTY
VConf Rank
SciTegic.value.IntegerValue
936

@<SCITEGIC>MOL_PROPERTY
Conf_Id
SciTegic.value.IntegerValue
61

@<SCITEGIC>MOL_PROPERTY
Delta U+W
SciTegic.value.DoubleValue
2.669

@<SCITEGIC>MOL_PROPERTY
U+W
SciTegic.value.DoubleValue
-9.108

@<SCITEGIC>MOL_PROPERTY
Grad RMS
SciTegic.value.DoubleValue
0.000000

@<SCITEGIC>MOL_PROPERTY
U
SciTegic.value.DoubleValue
48.916

@<SCITEGIC>MOL_PROPERTY
W
SciTegic.value.DoubleValue
-58.025

@<SCITEGIC>MOL_PROPERTY
W(PB)
SciTegic.value.DoubleValue
-59.935

@<SCITEGIC>MOL_PROPERTY
W(SA)
SciTegic.value.DoubleValue
1.911

@<SCITEGIC>MOL_PROPERTY
Valence
SciTegic.value.DoubleValue
3.785

@<SCITEGIC>MOL_PROPERTY
Coulomb
SciTegic.value.DoubleValue
44.716

@<SCITEGIC>MOL_PROPERTY
VdW
SciTegic.value.DoubleValue
0.415

@<SCITEGIC>MOL_PROPERTY
VdW6
SciTegic.value.DoubleValue
-4.836

@<SCITEGIC>MOL_PROPERTY
VdW12
SciTegic.value.DoubleValue
5.251

@<SCITEGIC>MOL_PROPERTY
Bond
SciTegic.value.DoubleValue
0.175

@<SCITEGIC>MOL_PROPERTY
Angle
SciTegic.value.DoubleValue
1.195

@<SCITEGIC>MOL_PROPERTY
Pdih
SciTegic.value.DoubleValue
2.415

@<SCITEGIC>MOL_PROPERTY
Idih
SciTegic.value.DoubleValue
0.000

@<SCITEGIC>MOL_PROPERTY
Tether
SciTegic.value.DoubleValue
0.000

@<TRIPOS>MOLECULE
guest-s11_confgen4.mol2 : confsearch ligand conformer 937
          20          19           1
SMALL
USER_CHARGES
 
@<TRIPOS>ATOM
       1    N1      22.067592   20.103006   21.776801 N.4        1 MOL1        -0.5919
       2    H1      22.456964   20.945929   21.341471 H          1 MOL1         0.3682
       3    H2      22.848822   19.455290   21.919793 H          1 MOL1         0.3682
       4    H3      21.440471   19.673338   21.091872 H          1 MOL1         0.3682
       5    C1      21.354880   20.420611   23.077470 C.3        1 MOL1         0.0252
       6    H4      20.572181   21.156768   22.875499 H          1 MOL1         0.0971
       7    H5      22.091919   20.884105   23.738913 H          1 MOL1         0.0971
       8    C2      20.748041   19.191902   23.787044 C.3        1 MOL1        -0.1369
       9    H6      21.452082   18.350009   23.750207 H          1 MOL1         0.0997
      10    H7      20.634874   19.442805   24.850111 H          1 MOL1         0.0997
      11    C3      19.359045   18.758793   23.251434 C.3        1 MOL1        -0.1329
      12    H8      18.652078   19.594286   23.349493 H          1 MOL1         0.0997
      13    H9      18.977219   17.958233   23.900119 H          1 MOL1         0.0997
      14    C4      19.363851   18.256292   21.788635 C.3        1 MOL1        -0.1305
      15    H10     19.597220   19.084096   21.107363 H          1 MOL1         0.0997
      16    H11     20.144681   17.493978   21.657778 H          1 MOL1         0.0997
      17    C5      17.997317   17.660515   21.387820 C.3        1 MOL1        -0.2320
      18    H12     18.014431   17.317763   20.345093 H          1 MOL1         0.1008
      19    H13     17.739810   16.800569   22.019804 H          1 MOL1         0.1008
      20    H14     17.197819   18.406742   21.483829 H          1 MOL1         0.1008
@<TRIPOS>BOND
    1     1     2    1
    2     1     3    1
    3     1     4    1
    4     1     5    1
    5     5     6    1
    6     5     7    1
    7     5     8    1
    8     8     9    1
    9     8    10    1
   10     8    11    1
   11    11    12    1
   12    11    13    1
   13    11    14    1
   14    14    15    1
   15    14    16    1
   16    14    17    1
   17    17    18    1
   18    17    19    1
   19    17    20    1
@<TRIPOS>SUBSTRUCTURE
       1 MOL1            1 RESIDUE      1      MOL     
@<SCITEGIC>MOL_PROPERTY
VConf Rank
SciTegic.value.IntegerValue
937

@<SCITEGIC>MOL_PROPERTY
Conf_Id
SciTegic.value.IntegerValue
69

@<SCITEGIC>MOL_PROPERTY
Delta U+W
SciTegic.value.DoubleValue
2.811

@<SCITEGIC>MOL_PROPERTY
U+W
SciTegic.value.DoubleValue
-8.967

@<SCITEGIC>MOL_PROPERTY
Grad RMS
SciTegic.value.DoubleValue
0.000000

@<SCITEGIC>MOL_PROPERTY
U
SciTegic.value.DoubleValue
49.216

@<SCITEGIC>MOL_PROPERTY
W
SciTegic.value.DoubleValue
-58.183

@<SCITEGIC>MOL_PROPERTY
W(PB)
SciTegic.value.DoubleValue
-60.064

@<SCITEGIC>MOL_PROPERTY
W(SA)
SciTegic.value.DoubleValue
1.881

@<SCITEGIC>MOL_PROPERTY
Valence
SciTegic.value.DoubleValue
2.929

@<SCITEGIC>MOL_PROPERTY
Coulomb
SciTegic.value.DoubleValue
46.006

@<SCITEGIC>MOL_PROPERTY
VdW
SciTegic.value.DoubleValue
0.281

@<SCITEGIC>MOL_PROPERTY
VdW6
SciTegic.value.DoubleValue
-4.909

@<SCITEGIC>MOL_PROPERTY
VdW12
SciTegic.value.DoubleValue
5.190

@<SCITEGIC>MOL_PROPERTY
Bond
SciTegic.value.DoubleValue
0.156

@<SCITEGIC>MOL_PROPERTY
Angle
SciTegic.value.DoubleValue
0.974

@<SCITEGIC>MOL_PROPERTY
Pdih
SciTegic.value.DoubleValue
1.799

@<SCITEGIC>MOL_PROPERTY
Idih
SciTegic.value.DoubleValue
0.000

@<SCITEGIC>MOL_PROPERTY
Tether
SciTegic.value.DoubleValue
0.000

@<TRIPOS>MOLECULE
guest-s11_confgen4.mol2 : confsearch ligand conformer 938
          20          19           1
SMALL
USER_CHARGES
 
@<TRIPOS>ATOM
       1    N1      21.346300   17.950908   20.948053 N.4        1 MOL1        -0.5919
       2    H1      20.825321   17.496544   21.702482 H          1 MOL1         0.3682
       3    H2      20.803096   17.826877   20.087909 H          1 MOL1         0.3682
       4    H3      22.218909   17.426193   20.826110 H          1 MOL1         0.3682
       5    C1      21.608081   19.415754   21.241764 C.3        1 MOL1         0.0252
       6    H4      22.175460   19.813181   20.395780 H          1 MOL1         0.0971
       7    H5      22.237316   19.485678   22.133119 H          1 MOL1         0.0971
       8    C2      20.333251   20.264239   21.432449 C.3        1 MOL1        -0.1369
       9    H6      20.596079   21.311141   21.230485 H          1 MOL1         0.0997
      10    H7      19.583246   19.991725   20.678100 H          1 MOL1         0.0997
      11    C3      19.719453   20.195144   22.854507 C.3        1 MOL1        -0.1329
      12    H8      18.895328   20.920125   22.906463 H          1 MOL1         0.0997
      13    H9      20.464323   20.526568   23.591251 H          1 MOL1         0.0997
      14    C4      19.183376   18.800587   23.254687 C.3        1 MOL1        -0.1305
      15    H10     18.519241   18.415548   22.468168 H          1 MOL1         0.0997
      16    H11     20.015488   18.092638   23.355935 H          1 MOL1         0.0997
      17    C5      18.414547   18.849618   24.592415 C.3        1 MOL1        -0.2320
      18    H12     17.546319   19.518153   24.525603 H          1 MOL1         0.1008
      19    H13     18.049399   17.851388   24.866742 H          1 MOL1         0.1008
      20    H14     19.059541   19.207375   25.405595 H          1 MOL1         0.1008
@<TRIPOS>BOND
    1     1     2    1
    2     1     3    1
    3     1     4    1
    4     1     5    1
    5     5     6    1
    6     5     7    1
    7     5     8    1
    8     8     9    1
    9     8    10    1
   10     8    11    1
   11    11    12    1
   12    11    13    1
   13    11    14    1
   14    14    15    1
   15    14    16    1
   16    14    17    1
   17    17    18    1
   18    17    19    1
   19    17    20    1
@<TRIPOS>SUBSTRUCTURE
       1 MOL1            1 RESIDUE      1      MOL     
@<SCITEGIC>MOL_PROPERTY
VConf Rank
SciTegic.value.IntegerValue
938

@<SCITEGIC>MOL_PROPERTY
Conf_Id
SciTegic.value.IntegerValue
26

@<SCITEGIC>MOL_PROPERTY
Delta U+W
SciTegic.value.DoubleValue
2.809

@<SCITEGIC>MOL_PROPERTY
U+W
SciTegic.value.DoubleValue
-8.969

@<SCITEGIC>MOL_PROPERTY
Grad RMS
SciTegic.value.DoubleValue
0.000000

@<SCITEGIC>MOL_PROPERTY
U
SciTegic.value.DoubleValue
49.216

@<SCITEGIC>MOL_PROPERTY
W
SciTegic.value.DoubleValue
-58.185

@<SCITEGIC>MOL_PROPERTY
W(PB)
SciTegic.value.DoubleValue
-60.088

@<SCITEGIC>MOL_PROPERTY
W(SA)
SciTegic.value.DoubleValue
1.903

@<SCITEGIC>MOL_PROPERTY
Valence
SciTegic.value.DoubleValue
2.929

@<SCITEGIC>MOL_PROPERTY
Coulomb
SciTegic.value.DoubleValue
46.006

@<SCITEGIC>MOL_PROPERTY
VdW
SciTegic.value.DoubleValue
0.281

@<SCITEGIC>MOL_PROPERTY
VdW6
SciTegic.value.DoubleValue
-4.909

@<SCITEGIC>MOL_PROPERTY
VdW12
SciTegic.value.DoubleValue
5.190

@<SCITEGIC>MOL_PROPERTY
Bond
SciTegic.value.DoubleValue
0.156

@<SCITEGIC>MOL_PROPERTY
Angle
SciTegic.value.DoubleValue
0.974

@<SCITEGIC>MOL_PROPERTY
Pdih
SciTegic.value.DoubleValue
1.799

@<SCITEGIC>MOL_PROPERTY
Idih
SciTegic.value.DoubleValue
0.000

@<SCITEGIC>MOL_PROPERTY
Tether
SciTegic.value.DoubleValue
0.000

@<TRIPOS>MOLECULE
guest-s11_confgen4.mol2 : confsearch ligand conformer 939
          20          19           1
SMALL
USER_CHARGES
 
@<TRIPOS>ATOM
       1    N1      22.421514   19.896187   22.750311 N.4        1 MOL1        -0.5919
       2    H1      22.332609   19.551310   21.790054 H          1 MOL1         0.3682
       3    H2      22.605966   20.902628   22.694703 H          1 MOL1         0.3682
       4    H3      23.259485   19.460846   23.149800 H          1 MOL1         0.3682
       5    C1      21.183255   19.594500   23.571711 C.3        1 MOL1         0.0252
       6    H4      21.359706   19.960421   24.586834 H          1 MOL1         0.0971
       7    H5      21.062756   18.509057   23.618888 H          1 MOL1         0.0971
       8    C2      19.897288   20.236422   23.012677 C.3        1 MOL1        -0.1369
       9    H6      19.070400   20.032747   23.704994 H          1 MOL1         0.0997
      10    H7      20.016239   21.327917   23.001393 H          1 MOL1         0.0997
      11    C3      19.516806   19.749661   21.589549 C.3        1 MOL1        -0.1329
      12    H8      20.271164   20.099388   20.872024 H          1 MOL1         0.0997
      13    H9      18.576385   20.232700   21.290417 H          1 MOL1         0.0997
      14    C4      19.362525   18.213768   21.447206 C.3        1 MOL1        -0.1305
      15    H10     19.115655   17.981554   20.401748 H          1 MOL1         0.0997
      16    H11     20.320169   17.714936   21.648656 H          1 MOL1         0.0997
      17    C5      18.266147   17.620511   22.360903 C.3        1 MOL1        -0.2320
      18    H12     17.300636   18.114282   22.190779 H          1 MOL1         0.1008
      19    H13     18.135374   16.549510   22.159061 H          1 MOL1         0.1008
      20    H14     18.524793   17.727049   23.421730 H          1 MOL1         0.1008
@<TRIPOS>BOND
    1     1     2    1
    2     1     3    1
    3     1     4    1
    4     1     5    1
    5     5     6    1
    6     5     7    1
    7     5     8    1
    8     8     9    1
    9     8    10    1
   10     8    11    1
   11    11    12    1
   12    11    13    1
   13    11    14    1
   14    14    15    1
   15    14    16    1
   16    14    17    1
   17    17    18    1
   18    17    19    1
   19    17    20    1
@<TRIPOS>SUBSTRUCTURE
       1 MOL1            1 RESIDUE      1      MOL     
@<SCITEGIC>MOL_PROPERTY
VConf Rank
SciTegic.value.IntegerValue
939

@<SCITEGIC>MOL_PROPERTY
Conf_Id
SciTegic.value.IntegerValue
2

@<SCITEGIC>MOL_PROPERTY
Delta U+W
SciTegic.value.DoubleValue
0.994

@<SCITEGIC>MOL_PROPERTY
U+W
SciTegic.value.DoubleValue
-10.784

@<SCITEGIC>MOL_PROPERTY
Grad RMS
SciTegic.value.DoubleValue
0.000000

@<SCITEGIC>MOL_PROPERTY
U
SciTegic.value.DoubleValue
47.562

@<SCITEGIC>MOL_PROPERTY
W
SciTegic.value.DoubleValue
-58.346

@<SCITEGIC>MOL_PROPERTY
W(PB)
SciTegic.value.DoubleValue
-60.221

@<SCITEGIC>MOL_PROPERTY
W(SA)
SciTegic.value.DoubleValue
1.875

@<SCITEGIC>MOL_PROPERTY
Valence
SciTegic.value.DoubleValue
2.149

@<SCITEGIC>MOL_PROPERTY
Coulomb
SciTegic.value.DoubleValue
45.034

@<SCITEGIC>MOL_PROPERTY
VdW
SciTegic.value.DoubleValue
0.378

@<SCITEGIC>MOL_PROPERTY
VdW6
SciTegic.value.DoubleValue
-5.599

@<SCITEGIC>MOL_PROPERTY
VdW12
SciTegic.value.DoubleValue
5.977

@<SCITEGIC>MOL_PROPERTY
Bond
SciTegic.value.DoubleValue
0.185

@<SCITEGIC>MOL_PROPERTY
Angle
SciTegic.value.DoubleValue
0.935

@<SCITEGIC>MOL_PROPERTY
Pdih
SciTegic.value.DoubleValue
1.028

@<SCITEGIC>MOL_PROPERTY
Idih
SciTegic.value.DoubleValue
0.000

@<SCITEGIC>MOL_PROPERTY
Tether
SciTegic.value.DoubleValue
0.000

@<TRIPOS>MOLECULE
guest-s11_confgen4.mol2 : confsearch ligand conformer 940
          20          19           1
SMALL
USER_CHARGES
 
@<TRIPOS>ATOM
       1    N1      17.832036   19.625277   22.751475 N.4        1 MOL1        -0.5919
       2    H1      17.607325   20.431702   23.342425 H          1 MOL1         0.3682
       3    H2      18.115298   19.989666   21.837187 H          1 MOL1         0.3682
       4    H3      16.959239   19.105879   22.610908 H          1 MOL1         0.3682
       5    C1      18.911470   18.757495   23.368543 C.3        1 MOL1         0.0252
       6    H4      19.079177   17.902622   22.708240 H          1 MOL1         0.0971
       7    H5      18.531053   18.380157   24.321646 H          1 MOL1         0.0971
       8    C2      20.242333   19.499448   23.606442 C.3        1 MOL1        -0.1369
       9    H6      20.069213   20.335169   24.297267 H          1 MOL1         0.0997
      10    H7      20.936698   18.823890   24.122206 H          1 MOL1         0.0997
      11    C3      20.904862   20.037099   22.310688 C.3        1 MOL1        -0.1329
      12    H8      21.857235   20.517666   22.573826 H          1 MOL1         0.0997
      13    H9      20.278634   20.832887   21.885522 H          1 MOL1         0.0997
      14    C4      21.164553   18.966108   21.220469 C.3        1 MOL1        -0.1305
      15    H10     20.214171   18.539381   20.872367 H          1 MOL1         0.0997
      16    H11     21.612691   19.457760   20.345656 H          1 MOL1         0.0997
      17    C5      22.102920   17.830440   21.687978 C.3        1 MOL1        -0.2320
      18    H12     21.647071   17.235448   22.489096 H          1 MOL1         0.1008
      19    H13     22.325738   17.149034   20.856760 H          1 MOL1         0.1008
      20    H14     23.055493   18.232146   22.057024 H          1 MOL1         0.1008
@<TRIPOS>BOND
    1     1     2    1
    2     1     3    1
    3     1     4    1
    4     1     5    1
    5     5     6    1
    6     5     7    1
    7     5     8    1
    8     8     9    1
    9     8    10    1
   10     8    11    1
   11    11    12    1
   12    11    13    1
   13    11    14    1
   14    14    15    1
   15    14    16    1
   16    14    17    1
   17    17    18    1
   18    17    19    1
   19    17    20    1
@<TRIPOS>SUBSTRUCTURE
       1 MOL1            1 RESIDUE      1      MOL     
@<SCITEGIC>MOL_PROPERTY
VConf Rank
SciTegic.value.IntegerValue
940

@<SCITEGIC>MOL_PROPERTY
Conf_Id
SciTegic.value.IntegerValue
1

@<SCITEGIC>MOL_PROPERTY
Delta U+W
SciTegic.value.DoubleValue
1.032

@<SCITEGIC>MOL_PROPERTY
U+W
SciTegic.value.DoubleValue
-10.746

@<SCITEGIC>MOL_PROPERTY
Grad RMS
SciTegic.value.DoubleValue
0.000000

@<SCITEGIC>MOL_PROPERTY
U
SciTegic.value.DoubleValue
47.562

@<SCITEGIC>MOL_PROPERTY
W
SciTegic.value.DoubleValue
-58.308

@<SCITEGIC>MOL_PROPERTY
W(PB)
SciTegic.value.DoubleValue
-60.184

@<SCITEGIC>MOL_PROPERTY
W(SA)
SciTegic.value.DoubleValue
1.877

@<SCITEGIC>MOL_PROPERTY
Valence
SciTegic.value.DoubleValue
2.149

@<SCITEGIC>MOL_PROPERTY
Coulomb
SciTegic.value.DoubleValue
45.035

@<SCITEGIC>MOL_PROPERTY
VdW
SciTegic.value.DoubleValue
0.378

@<SCITEGIC>MOL_PROPERTY
VdW6
SciTegic.value.DoubleValue
-5.599

@<SCITEGIC>MOL_PROPERTY
VdW12
SciTegic.value.DoubleValue
5.978

@<SCITEGIC>MOL_PROPERTY
Bond
SciTegic.value.DoubleValue
0.185

@<SCITEGIC>MOL_PROPERTY
Angle
SciTegic.value.DoubleValue
0.935

@<SCITEGIC>MOL_PROPERTY
Pdih
SciTegic.value.DoubleValue
1.028

@<SCITEGIC>MOL_PROPERTY
Idih
SciTegic.value.DoubleValue
0.000

@<SCITEGIC>MOL_PROPERTY
Tether
SciTegic.value.DoubleValue
0.000

@<TRIPOS>MOLECULE
guest-s11_confgen4.mol2 : confsearch ligand conformer 941
          20          19           1
SMALL
USER_CHARGES
 
@<TRIPOS>ATOM
       1    N1      21.290555   17.090276   22.969323 N.4        1 MOL1        -0.5919
       2    H1      21.374769   16.798594   23.948057 H          1 MOL1         0.3682
       3    H2      20.330987   16.887828   22.674489 H          1 MOL1         0.3682
       4    H3      21.906797   16.479975   22.422400 H          1 MOL1         0.3682
       5    C1      21.639875   18.554385   22.784619 C.3        1 MOL1         0.0252
       6    H4      21.559669   18.787626   21.721752 H          1 MOL1         0.0971
       7    H5      22.685193   18.682169   23.078736 H          1 MOL1         0.0971
       8    C2      20.760292   19.514692   23.613389 C.3        1 MOL1        -0.1369
       9    H6      20.861361   19.240832   24.671976 H          1 MOL1         0.0997
      10    H7      21.156198   20.535290   23.528200 H          1 MOL1         0.0997
      11    C3      19.254734   19.507079   23.234495 C.3        1 MOL1        -0.1329
      12    H8      18.687107   19.865239   24.104521 H          1 MOL1         0.0997
      13    H9      18.904479   18.481696   23.059471 H          1 MOL1         0.0997
      14    C4      18.875766   20.408829   22.031472 C.3        1 MOL1        -0.1305
      15    H10     17.782467   20.392841   21.920160 H          1 MOL1         0.0997
      16    H11     19.142006   21.452065   22.251827 H          1 MOL1         0.0997
      17    C5      19.511534   19.989347   20.687685 C.3        1 MOL1        -0.2320
      18    H12     19.361352   18.919859   20.491722 H          1 MOL1         0.1008
      19    H13     19.057491   20.548644   19.859458 H          1 MOL1         0.1008
      20    H14     20.586657   20.203495   20.670239 H          1 MOL1         0.1008
@<TRIPOS>BOND
    1     1     2    1
    2     1     3    1
    3     1     4    1
    4     1     5    1
    5     5     6    1
    6     5     7    1
    7     5     8    1
    8     8     9    1
    9     8    10    1
   10     8    11    1
   11    11    12    1
   12    11    13    1
   13    11    14    1
   14    14    15    1
   15    14    16    1
   16    14    17    1
   17    17    18    1
   18    17    19    1
   19    17    20    1
@<TRIPOS>SUBSTRUCTURE
       1 MOL1            1 RESIDUE      1      MOL     
@<SCITEGIC>MOL_PROPERTY
VConf Rank
SciTegic.value.IntegerValue
941

@<SCITEGIC>MOL_PROPERTY
Conf_Id
SciTegic.value.IntegerValue
80

@<SCITEGIC>MOL_PROPERTY
Delta U+W
SciTegic.value.DoubleValue
2.920

@<SCITEGIC>MOL_PROPERTY
U+W
SciTegic.value.DoubleValue
-8.857

@<SCITEGIC>MOL_PROPERTY
Grad RMS
SciTegic.value.DoubleValue
0.000000

@<SCITEGIC>MOL_PROPERTY
U
SciTegic.value.DoubleValue
49.434

@<SCITEGIC>MOL_PROPERTY
W
SciTegic.value.DoubleValue
-58.292

@<SCITEGIC>MOL_PROPERTY
W(PB)
SciTegic.value.DoubleValue
-60.170

@<SCITEGIC>MOL_PROPERTY
W(SA)
SciTegic.value.DoubleValue
1.879

@<SCITEGIC>MOL_PROPERTY
Valence
SciTegic.value.DoubleValue
3.798

@<SCITEGIC>MOL_PROPERTY
Coulomb
SciTegic.value.DoubleValue
45.253

@<SCITEGIC>MOL_PROPERTY
VdW
SciTegic.value.DoubleValue
0.384

@<SCITEGIC>MOL_PROPERTY
VdW6
SciTegic.value.DoubleValue
-5.595

@<SCITEGIC>MOL_PROPERTY
VdW12
SciTegic.value.DoubleValue
5.979

@<SCITEGIC>MOL_PROPERTY
Bond
SciTegic.value.DoubleValue
0.198

@<SCITEGIC>MOL_PROPERTY
Angle
SciTegic.value.DoubleValue
1.368

@<SCITEGIC>MOL_PROPERTY
Pdih
SciTegic.value.DoubleValue
2.231

@<SCITEGIC>MOL_PROPERTY
Idih
SciTegic.value.DoubleValue
0.000

@<SCITEGIC>MOL_PROPERTY
Tether
SciTegic.value.DoubleValue
0.000

@<TRIPOS>MOLECULE
guest-s11_confgen4.mol2 : confsearch ligand conformer 942
          20          19           1
SMALL
USER_CHARGES
 
@<TRIPOS>ATOM
       1    N1      18.308220   20.125064   23.499109 N.4        1 MOL1        -0.5919
       2    H1      17.391192   19.711530   23.303813 H          1 MOL1         0.3682
       3    H2      18.186727   20.755343   24.298693 H          1 MOL1         0.3682
       4    H3      18.555336   20.707708   22.694033 H          1 MOL1         0.3682
       5    C1      19.358593   19.065758   23.771772 C.3        1 MOL1         0.0252
       6    H4      19.047002   18.516516   24.664390 H          1 MOL1         0.0971
       7    H5      20.296660   19.573684   24.001027 H          1 MOL1         0.0971
       8    C2      19.556788   18.070199   22.608883 C.3        1 MOL1        -0.1369
       9    H6      20.230773   17.265181   22.930297 H          1 MOL1         0.0997
      10    H7      18.591026   17.589382   22.404095 H          1 MOL1         0.0997
      11    C3      20.090888   18.703017   21.295641 C.3        1 MOL1        -0.1329
      12    H8      19.593455   19.661049   21.097007 H          1 MOL1         0.0997
      13    H9      19.801971   18.045777   20.463784 H          1 MOL1         0.0997
      14    C4      21.629694   18.881833   21.231263 C.3        1 MOL1        -0.1305
      15    H10     22.121137   17.904329   21.334952 H          1 MOL1         0.0997
      16    H11     21.892161   19.247357   20.228541 H          1 MOL1         0.0997
      17    C5      22.207852   19.860863   22.276806 C.3        1 MOL1        -0.2320
      18    H12     22.174242   19.433438   23.285880 H          1 MOL1         0.1008
      19    H13     23.260124   20.079843   22.053871 H          1 MOL1         0.1008
      20    H14     21.660691   20.812375   22.278024 H          1 MOL1         0.1008
@<TRIPOS>BOND
    1     1     2    1
    2     1     3    1
    3     1     4    1
    4     1     5    1
    5     5     6    1
    6     5     7    1
    7     5     8    1
    8     8     9    1
    9     8    10    1
   10     8    11    1
   11    11    12    1
   12    11    13    1
   13    11    14    1
   14    14    15    1
   15    14    16    1
   16    14    17    1
   17    17    18    1
   18    17    19    1
   19    17    20    1
@<TRIPOS>SUBSTRUCTURE
       1 MOL1            1 RESIDUE      1      MOL     
@<SCITEGIC>MOL_PROPERTY
VConf Rank
SciTegic.value.IntegerValue
942

@<SCITEGIC>MOL_PROPERTY
Conf_Id
SciTegic.value.IntegerValue
65

@<SCITEGIC>MOL_PROPERTY
Delta U+W
SciTegic.value.DoubleValue
2.949

@<SCITEGIC>MOL_PROPERTY
U+W
SciTegic.value.DoubleValue
-8.829

@<SCITEGIC>MOL_PROPERTY
Grad RMS
SciTegic.value.DoubleValue
0.000000

@<SCITEGIC>MOL_PROPERTY
U
SciTegic.value.DoubleValue
49.435

@<SCITEGIC>MOL_PROPERTY
W
SciTegic.value.DoubleValue
-58.263

@<SCITEGIC>MOL_PROPERTY
W(PB)
SciTegic.value.DoubleValue
-60.125

@<SCITEGIC>MOL_PROPERTY
W(SA)
SciTegic.value.DoubleValue
1.862

@<SCITEGIC>MOL_PROPERTY
Valence
SciTegic.value.DoubleValue
3.797

@<SCITEGIC>MOL_PROPERTY
Coulomb
SciTegic.value.DoubleValue
45.253

@<SCITEGIC>MOL_PROPERTY
VdW
SciTegic.value.DoubleValue
0.384

@<SCITEGIC>MOL_PROPERTY
VdW6
SciTegic.value.DoubleValue
-5.596

@<SCITEGIC>MOL_PROPERTY
VdW12
SciTegic.value.DoubleValue
5.980

@<SCITEGIC>MOL_PROPERTY
Bond
SciTegic.value.DoubleValue
0.198

@<SCITEGIC>MOL_PROPERTY
Angle
SciTegic.value.DoubleValue
1.369

@<SCITEGIC>MOL_PROPERTY
Pdih
SciTegic.value.DoubleValue
2.230

@<SCITEGIC>MOL_PROPERTY
Idih
SciTegic.value.DoubleValue
0.000

@<SCITEGIC>MOL_PROPERTY
Tether
SciTegic.value.DoubleValue
0.000

@<TRIPOS>MOLECULE
guest-s11_confgen4.mol2 : confsearch ligand conformer 943
          20          19           1
SMALL
USER_CHARGES
 
@<TRIPOS>ATOM
       1    N1      19.012359   17.838811   23.318035 N.4        1 MOL1        -0.5919
       2    H1      18.536945   16.970825   23.049216 H          1 MOL1         0.3682
       3    H2      20.012764   17.707366   23.140171 H          1 MOL1         0.3682
       4    H3      18.893617   17.942279   24.330755 H          1 MOL1         0.3682
       5    C1      18.469045   19.036267   22.562744 C.3        1 MOL1         0.0252
       6    H4      17.405233   19.110418   22.804250 H          1 MOL1         0.0971
       7    H5      18.560787   18.845552   21.490171 H          1 MOL1         0.0971
       8    C2      19.160140   20.368119   22.919070 C.3        1 MOL1        -0.1369
       9    H6      18.464978   21.181292   22.671460 H          1 MOL1         0.0997
      10    H7      19.314610   20.428052   24.004591 H          1 MOL1         0.0997
      11    C3      20.493508   20.641692   22.172647 C.3        1 MOL1        -0.1329
      12    H8      20.842324   21.637864   22.478414 H          1 MOL1         0.0997
      13    H9      20.309426   20.714740   21.091793 H          1 MOL1         0.0997
      14    C4      21.632947   19.628372   22.450820 C.3        1 MOL1        -0.1305
      15    H10     22.589388   20.170082   22.456113 H          1 MOL1         0.0997
      16    H11     21.530357   19.201378   23.457505 H          1 MOL1         0.0997
      17    C5      21.727931   18.512579   21.383204 C.3        1 MOL1        -0.2320
      18    H12     20.786523   17.965901   21.262835 H          1 MOL1         0.1008
      19    H13     21.989304   18.936101   20.404615 H          1 MOL1         0.1008
      20    H14     22.509241   17.788529   21.648697 H          1 MOL1         0.1008
@<TRIPOS>BOND
    1     1     2    1
    2     1     3    1
    3     1     4    1
    4     1     5    1
    5     5     6    1
    6     5     7    1
    7     5     8    1
    8     8     9    1
    9     8    10    1
   10     8    11    1
   11    11    12    1
   12    11    13    1
   13    11    14    1
   14    14    15    1
   15    14    16    1
   16    14    17    1
   17    17    18    1
   18    17    19    1
   19    17    20    1
@<TRIPOS>SUBSTRUCTURE
       1 MOL1            1 RESIDUE      1      MOL     
@<SCITEGIC>MOL_PROPERTY
VConf Rank
SciTegic.value.IntegerValue
943

@<SCITEGIC>MOL_PROPERTY
Conf_Id
SciTegic.value.IntegerValue
77

@<SCITEGIC>MOL_PROPERTY
Delta U+W
SciTegic.value.DoubleValue
5.366

@<SCITEGIC>MOL_PROPERTY
U+W
SciTegic.value.DoubleValue
-6.412

@<SCITEGIC>MOL_PROPERTY
Grad RMS
SciTegic.value.DoubleValue
0.000000

@<SCITEGIC>MOL_PROPERTY
U
SciTegic.value.DoubleValue
51.542

@<SCITEGIC>MOL_PROPERTY
W
SciTegic.value.DoubleValue
-57.954

@<SCITEGIC>MOL_PROPERTY
W(PB)
SciTegic.value.DoubleValue
-59.811

@<SCITEGIC>MOL_PROPERTY
W(SA)
SciTegic.value.DoubleValue
1.857

@<SCITEGIC>MOL_PROPERTY
Valence
SciTegic.value.DoubleValue
5.347

@<SCITEGIC>MOL_PROPERTY
Coulomb
SciTegic.value.DoubleValue
45.870

@<SCITEGIC>MOL_PROPERTY
VdW
SciTegic.value.DoubleValue
0.325

@<SCITEGIC>MOL_PROPERTY
VdW6
SciTegic.value.DoubleValue
-6.161

@<SCITEGIC>MOL_PROPERTY
VdW12
SciTegic.value.DoubleValue
6.486

@<SCITEGIC>MOL_PROPERTY
Bond
SciTegic.value.DoubleValue
0.201

@<SCITEGIC>MOL_PROPERTY
Angle
SciTegic.value.DoubleValue
1.484

@<SCITEGIC>MOL_PROPERTY
Pdih
SciTegic.value.DoubleValue
3.662

@<SCITEGIC>MOL_PROPERTY
Idih
SciTegic.value.DoubleValue
0.000

@<SCITEGIC>MOL_PROPERTY
Tether
SciTegic.value.DoubleValue
0.000

@<TRIPOS>MOLECULE
guest-s11_confgen4.mol2 : confsearch ligand conformer 944
          20          19           1
SMALL
USER_CHARGES
 
@<TRIPOS>ATOM
       1    N1      20.337791   18.521990   20.553506 N.4        1 MOL1        -0.5919
       2    H1      20.069414   19.252255   19.886353 H          1 MOL1         0.3682
       3    H2      21.144823   18.871078   21.079399 H          1 MOL1         0.3682
       4    H3      20.655893   17.717415   20.002913 H          1 MOL1         0.3682
       5    C1      19.192348   18.155468   21.477185 C.3        1 MOL1         0.0252
       6    H4      19.510740   17.331045   22.120734 H          1 MOL1         0.0971
       7    H5      18.375068   17.796615   20.845681 H          1 MOL1         0.0971
       8    C2      18.683882   19.327834   22.340568 C.3        1 MOL1        -0.1369
       9    H6      18.627904   20.240458   21.732461 H          1 MOL1         0.0997
      10    H7      17.650382   19.101690   22.634759 H          1 MOL1         0.0997
      11    C3      19.496533   19.596461   23.635674 C.3        1 MOL1        -0.1329
      12    H8      19.436706   18.725317   24.302753 H          1 MOL1         0.0997
      13    H9      18.995345   20.412776   24.174159 H          1 MOL1         0.0997
      14    C4      20.977249   20.001488   23.421305 C.3        1 MOL1        -0.1305
      15    H10     21.098472   20.521361   22.461461 H          1 MOL1         0.0997
      16    H11     21.254288   20.735290   24.191398 H          1 MOL1         0.0997
      17    C5      21.955816   18.808192   23.532086 C.3        1 MOL1        -0.2320
      18    H12     22.983664   19.129621   23.319031 H          1 MOL1         0.1008
      19    H13     21.943993   18.392510   24.548152 H          1 MOL1         0.1008
      20    H14     21.705562   17.995004   22.842382 H          1 MOL1         0.1008
@<TRIPOS>BOND
    1     1     2    1
    2     1     3    1
    3     1     4    1
    4     1     5    1
    5     5     6    1
    6     5     7    1
    7     5     8    1
    8     8     9    1
    9     8    10    1
   10     8    11    1
   11    11    12    1
   12    11    13    1
   13    11    14    1
   14    14    15    1
   15    14    16    1
   16    14    17    1
   17    17    18    1
   18    17    19    1
   19    17    20    1
@<TRIPOS>SUBSTRUCTURE
       1 MOL1            1 RESIDUE      1      MOL     
@<SCITEGIC>MOL_PROPERTY
VConf Rank
SciTegic.value.IntegerValue
944

@<SCITEGIC>MOL_PROPERTY
Conf_Id
SciTegic.value.IntegerValue
67

@<SCITEGIC>MOL_PROPERTY
Delta U+W
SciTegic.value.DoubleValue
5.353

@<SCITEGIC>MOL_PROPERTY
U+W
SciTegic.value.DoubleValue
-6.425

@<SCITEGIC>MOL_PROPERTY
Grad RMS
SciTegic.value.DoubleValue
0.000000

@<SCITEGIC>MOL_PROPERTY
U
SciTegic.value.DoubleValue
51.541

@<SCITEGIC>MOL_PROPERTY
W
SciTegic.value.DoubleValue
-57.966

@<SCITEGIC>MOL_PROPERTY
W(PB)
SciTegic.value.DoubleValue
-59.821

@<SCITEGIC>MOL_PROPERTY
W(SA)
SciTegic.value.DoubleValue
1.855

@<SCITEGIC>MOL_PROPERTY
Valence
SciTegic.value.DoubleValue
5.347

@<SCITEGIC>MOL_PROPERTY
Coulomb
SciTegic.value.DoubleValue
45.870

@<SCITEGIC>MOL_PROPERTY
VdW
SciTegic.value.DoubleValue
0.325

@<SCITEGIC>MOL_PROPERTY
VdW6
SciTegic.value.DoubleValue
-6.161

@<SCITEGIC>MOL_PROPERTY
VdW12
SciTegic.value.DoubleValue
6.486

@<SCITEGIC>MOL_PROPERTY
Bond
SciTegic.value.DoubleValue
0.201

@<SCITEGIC>MOL_PROPERTY
Angle
SciTegic.value.DoubleValue
1.485

@<SCITEGIC>MOL_PROPERTY
Pdih
SciTegic.value.DoubleValue
3.662

@<SCITEGIC>MOL_PROPERTY
Idih
SciTegic.value.DoubleValue
0.000

@<SCITEGIC>MOL_PROPERTY
Tether
SciTegic.value.DoubleValue
0.000

@<TRIPOS>MOLECULE
guest-s11_confgen4.mol2 : confsearch ligand conformer 945
          20          19           1
SMALL
USER_CHARGES
 
@<TRIPOS>ATOM
       1    N1      21.292732   19.641187   25.426532 N.4        1 MOL1        -0.5919
       2    H1      20.476204   19.314409   25.952732 H          1 MOL1         0.3682
       3    H2      22.121392   19.378375   25.970454 H          1 MOL1         0.3682
       4    H3      21.255538   20.665362   25.418179 H          1 MOL1         0.3682
       5    C1      21.332284   19.064137   24.025841 C.3        1 MOL1         0.0252
       6    H4      21.401696   17.976259   24.110815 H          1 MOL1         0.0971
       7    H5      22.239358   19.428678   23.536105 H          1 MOL1         0.0971
       8    C2      20.101271   19.440087   23.181723 C.3        1 MOL1        -0.1369
       9    H6      19.191678   19.086129   23.685135 H          1 MOL1         0.0997
      10    H7      20.026441   20.533551   23.112396 H          1 MOL1         0.0997
      11    C3      20.180773   18.832980   21.763333 C.3        1 MOL1        -0.1329
      12    H8      20.260826   17.739356   21.836605 H          1 MOL1         0.0997
      13    H9      21.094543   19.185106   21.264512 H          1 MOL1         0.0997
      14    C4      18.949594   19.203899   20.906503 C.3        1 MOL1        -0.1305
      15    H10     18.033345   18.851613   21.400902 H          1 MOL1         0.0997
      16    H11     18.866990   20.297145   20.828801 H          1 MOL1         0.0997
      17    C5      19.033341   18.595137   19.490391 C.3        1 MOL1        -0.2320
      18    H12     19.082367   17.499267   19.533753 H          1 MOL1         0.1008
      19    H13     18.150983   18.869324   18.897677 H          1 MOL1         0.1008
      20    H14     19.922436   18.956184   18.957129 H          1 MOL1         0.1008
@<TRIPOS>BOND
    1     1     2    1
    2     1     3    1
    3     1     4    1
    4     1     5    1
    5     5     6    1
    6     5     7    1
    7     5     8    1
    8     8     9    1
    9     8    10    1
   10     8    11    1
   11    11    12    1
   12    11    13    1
   13    11    14    1
   14    14    15    1
   15    14    16    1
   16    14    17    1
   17    17    18    1
   18    17    19    1
   19    17    20    1
@<TRIPOS>SUBSTRUCTURE
       1 MOL1            1 RESIDUE      1      MOL     
@<SCITEGIC>MOL_PROPERTY
VConf Rank
SciTegic.value.IntegerValue
945

@<SCITEGIC>MOL_PROPERTY
Conf_Id
SciTegic.value.IntegerValue
72

@<SCITEGIC>MOL_PROPERTY
Delta U+W
SciTegic.value.DoubleValue
0.000

@<SCITEGIC>MOL_PROPERTY
U+W
SciTegic.value.DoubleValue
-11.778

@<SCITEGIC>MOL_PROPERTY
Grad RMS
SciTegic.value.DoubleValue
0.000000

@<SCITEGIC>MOL_PROPERTY
U
SciTegic.value.DoubleValue
45.772

@<SCITEGIC>MOL_PROPERTY
W
SciTegic.value.DoubleValue
-57.550

@<SCITEGIC>MOL_PROPERTY
W(PB)
SciTegic.value.DoubleValue
-59.511

@<SCITEGIC>MOL_PROPERTY
W(SA)
SciTegic.value.DoubleValue
1.961

@<SCITEGIC>MOL_PROPERTY
Valence
SciTegic.value.DoubleValue
1.299

@<SCITEGIC>MOL_PROPERTY
Coulomb
SciTegic.value.DoubleValue
44.177

@<SCITEGIC>MOL_PROPERTY
VdW
SciTegic.value.DoubleValue
0.297

@<SCITEGIC>MOL_PROPERTY
VdW6
SciTegic.value.DoubleValue
-3.490

@<SCITEGIC>MOL_PROPERTY
VdW12
SciTegic.value.DoubleValue
3.786

@<SCITEGIC>MOL_PROPERTY
Bond
SciTegic.value.DoubleValue
0.096

@<SCITEGIC>MOL_PROPERTY
Angle
SciTegic.value.DoubleValue
0.381

@<SCITEGIC>MOL_PROPERTY
Pdih
SciTegic.value.DoubleValue
0.822

@<SCITEGIC>MOL_PROPERTY
Idih
SciTegic.value.DoubleValue
0.000

@<SCITEGIC>MOL_PROPERTY
Tether
SciTegic.value.DoubleValue
0.000

@<TRIPOS>MOLECULE
guest-s11_confgen4.mol2 : confsearch ligand conformer 946
          20          19           1
SMALL
USER_CHARGES
 
@<TRIPOS>ATOM
       1    N1      19.782832   20.407157   19.758789 N.4        1 MOL1        -0.5919
       2    H1      20.747065   20.164502   19.510377 H          1 MOL1         0.3682
       3    H2      19.176954   19.686148   19.354535 H          1 MOL1         0.3682
       4    H3      19.563379   21.284737   19.275804 H          1 MOL1         0.3682
       5    C1      19.597099   20.527960   21.257950 C.3        1 MOL1         0.0252
       6    H4      18.559761   20.817155   21.447135 H          1 MOL1         0.0971
       7    H5      20.247779   21.330789   21.615143 H          1 MOL1         0.0971
       8    C2      19.917983   19.226399   22.014415 C.3        1 MOL1        -0.1369
       9    H6      19.273449   18.419350   21.641508 H          1 MOL1         0.0997
      10    H7      20.954981   18.936368   21.803267 H          1 MOL1         0.0997
      11    C3      19.712792   19.394694   23.538457 C.3        1 MOL1        -0.1329
      12    H8      18.692572   19.758646   23.724013 H          1 MOL1         0.0997
      13    H9      20.391117   20.170590   23.919831 H          1 MOL1         0.0997
      14    C4      19.921736   18.085803   24.338343 C.3        1 MOL1        -0.1305
      15    H10     19.655783   18.268347   25.389003 H          1 MOL1         0.0997
      16    H11     19.228369   17.313860   23.976097 H          1 MOL1         0.0997
      17    C5      21.371347   17.552509   24.277076 C.3        1 MOL1        -0.2320
      18    H12     22.087574   18.315827   24.607805 H          1 MOL1         0.1008
      19    H13     21.487042   16.678635   24.931226 H          1 MOL1         0.1008
      20    H14     21.644416   17.241420   23.261163 H          1 MOL1         0.1008
@<TRIPOS>BOND
    1     1     2    1
    2     1     3    1
    3     1     4    1
    4     1     5    1
    5     5     6    1
    6     5     7    1
    7     5     8    1
    8     8     9    1
    9     8    10    1
   10     8    11    1
   11    11    12    1
   12    11    13    1
   13    11    14    1
   14    14    15    1
   15    14    16    1
   16    14    17    1
   17    17    18    1
   18    17    19    1
   19    17    20    1
@<TRIPOS>SUBSTRUCTURE
       1 MOL1            1 RESIDUE      1      MOL     
@<SCITEGIC>MOL_PROPERTY
VConf Rank
SciTegic.value.IntegerValue
946

@<SCITEGIC>MOL_PROPERTY
Conf_Id
SciTegic.value.IntegerValue
42

@<SCITEGIC>MOL_PROPERTY
Delta U+W
SciTegic.value.DoubleValue
0.508

@<SCITEGIC>MOL_PROPERTY
U+W
SciTegic.value.DoubleValue
-11.270

@<SCITEGIC>MOL_PROPERTY
Grad RMS
SciTegic.value.DoubleValue
0.000000

@<SCITEGIC>MOL_PROPERTY
U
SciTegic.value.DoubleValue
46.486

@<SCITEGIC>MOL_PROPERTY
W
SciTegic.value.DoubleValue
-57.756

@<SCITEGIC>MOL_PROPERTY
W(PB)
SciTegic.value.DoubleValue
-59.705

@<SCITEGIC>MOL_PROPERTY
W(SA)
SciTegic.value.DoubleValue
1.949

@<SCITEGIC>MOL_PROPERTY
Valence
SciTegic.value.DoubleValue
1.806

@<SCITEGIC>MOL_PROPERTY
Coulomb
SciTegic.value.DoubleValue
44.248

@<SCITEGIC>MOL_PROPERTY
VdW
SciTegic.value.DoubleValue
0.433

@<SCITEGIC>MOL_PROPERTY
VdW6
SciTegic.value.DoubleValue
-4.089

@<SCITEGIC>MOL_PROPERTY
VdW12
SciTegic.value.DoubleValue
4.522

@<SCITEGIC>MOL_PROPERTY
Bond
SciTegic.value.DoubleValue
0.131

@<SCITEGIC>MOL_PROPERTY
Angle
SciTegic.value.DoubleValue
0.628

@<SCITEGIC>MOL_PROPERTY
Pdih
SciTegic.value.DoubleValue
1.047

@<SCITEGIC>MOL_PROPERTY
Idih
SciTegic.value.DoubleValue
0.000

@<SCITEGIC>MOL_PROPERTY
Tether
SciTegic.value.DoubleValue
0.000

@<TRIPOS>MOLECULE
guest-s11_confgen4.mol2 : confsearch ligand conformer 947
          20          19           1
SMALL
USER_CHARGES
 
@<TRIPOS>ATOM
       1    N1      21.300442   16.278456   22.463300 N.4        1 MOL1        -0.5919
       2    H1      22.111253   16.469177   21.866161 H          1 MOL1         0.3682
       3    H2      21.612477   16.374318   23.434782 H          1 MOL1         0.3682
       4    H3      21.055552   15.292203   22.325764 H          1 MOL1         0.3682
       5    C1      20.136628   17.196666   22.148641 C.3        1 MOL1         0.0252
       6    H4      19.302097   16.918653   22.798081 H          1 MOL1         0.0971
       7    H5      19.838221   17.019860   21.111728 H          1 MOL1         0.0971
       8    C2      20.470882   18.686365   22.344450 C.3        1 MOL1        -0.1369
       9    H6      20.785868   18.848736   23.382952 H          1 MOL1         0.0997
      10    H7      21.319456   18.957298   21.702322 H          1 MOL1         0.0997
      11    C3      19.257065   19.585323   22.010299 C.3        1 MOL1        -0.1329
      12    H8      18.422503   19.345832   22.683899 H          1 MOL1         0.0997
      13    H9      18.909282   19.353524   20.993904 H          1 MOL1         0.0997
      14    C4      19.568896   21.099580   22.090655 C.3        1 MOL1        -0.1305
      15    H10     20.387437   21.347867   21.400566 H          1 MOL1         0.0997
      16    H11     18.690908   21.659546   21.739210 H          1 MOL1         0.0997
      17    C5      19.927287   21.578769   23.515950 C.3        1 MOL1        -0.2320
      18    H12     20.868207   21.136443   23.865865 H          1 MOL1         0.1008
      19    H13     20.049133   22.669520   23.535122 H          1 MOL1         0.1008
      20    H14     19.136745   21.317278   24.231267 H          1 MOL1         0.1008
@<TRIPOS>BOND
    1     1     2    1
    2     1     3    1
    3     1     4    1
    4     1     5    1
    5     5     6    1
    6     5     7    1
    7     5     8    1
    8     8     9    1
    9     8    10    1
   10     8    11    1
   11    11    12    1
   12    11    13    1
   13    11    14    1
   14    14    15    1
   15    14    16    1
   16    14    17    1
   17    17    18    1
   18    17    19    1
   19    17    20    1
@<TRIPOS>SUBSTRUCTURE
       1 MOL1            1 RESIDUE      1      MOL     
@<SCITEGIC>MOL_PROPERTY
VConf Rank
SciTegic.value.IntegerValue
947

@<SCITEGIC>MOL_PROPERTY
Conf_Id
SciTegic.value.IntegerValue
41

@<SCITEGIC>MOL_PROPERTY
Delta U+W
SciTegic.value.DoubleValue
0.515

@<SCITEGIC>MOL_PROPERTY
U+W
SciTegic.value.DoubleValue
-11.263

@<SCITEGIC>MOL_PROPERTY
Grad RMS
SciTegic.value.DoubleValue
0.000000

@<SCITEGIC>MOL_PROPERTY
U
SciTegic.value.DoubleValue
46.486

@<SCITEGIC>MOL_PROPERTY
W
SciTegic.value.DoubleValue
-57.749

@<SCITEGIC>MOL_PROPERTY
W(PB)
SciTegic.value.DoubleValue
-59.685

@<SCITEGIC>MOL_PROPERTY
W(SA)
SciTegic.value.DoubleValue
1.936

@<SCITEGIC>MOL_PROPERTY
Valence
SciTegic.value.DoubleValue
1.806

@<SCITEGIC>MOL_PROPERTY
Coulomb
SciTegic.value.DoubleValue
44.248

@<SCITEGIC>MOL_PROPERTY
VdW
SciTegic.value.DoubleValue
0.433

@<SCITEGIC>MOL_PROPERTY
VdW6
SciTegic.value.DoubleValue
-4.089

@<SCITEGIC>MOL_PROPERTY
VdW12
SciTegic.value.DoubleValue
4.522

@<SCITEGIC>MOL_PROPERTY
Bond
SciTegic.value.DoubleValue
0.131

@<SCITEGIC>MOL_PROPERTY
Angle
SciTegic.value.DoubleValue
0.628

@<SCITEGIC>MOL_PROPERTY
Pdih
SciTegic.value.DoubleValue
1.047

@<SCITEGIC>MOL_PROPERTY
Idih
SciTegic.value.DoubleValue
0.000

@<SCITEGIC>MOL_PROPERTY
Tether
SciTegic.value.DoubleValue
0.000

@<TRIPOS>MOLECULE
guest-s11_confgen4.mol2 : confsearch ligand conformer 948
          20          19           1
SMALL
USER_CHARGES
 
@<TRIPOS>ATOM
       1    N1      17.824035   20.097894   23.610203 N.4        1 MOL1        -0.5919
       2    H1      17.299946   20.473366   24.407607 H          1 MOL1         0.3682
       3    H2      18.157835   20.900407   23.068455 H          1 MOL1         0.3682
       4    H3      17.152016   19.594320   23.022838 H          1 MOL1         0.3682
       5    C1      18.964633   19.203860   24.057310 C.3        1 MOL1         0.0252
       6    H4      18.536656   18.400148   24.662687 H          1 MOL1         0.0971
       7    H5      19.628531   19.793175   24.695580 H          1 MOL1         0.0971
       8    C2      19.771145   18.591720   22.895117 C.3        1 MOL1        -0.1369
       9    H6      20.487189   17.877125   23.319668 H          1 MOL1         0.0997
      10    H7      19.098740   18.015001   22.246305 H          1 MOL1         0.0997
      11    C3      20.526738   19.658837   22.063579 C.3        1 MOL1        -0.1329
      12    H8      21.214092   20.216478   22.714769 H          1 MOL1         0.0997
      13    H9      19.809502   20.391991   21.671577 H          1 MOL1         0.0997
      14    C4      21.313263   19.066216   20.868941 C.3        1 MOL1        -0.1305
      15    H10     20.627613   18.518766   20.207089 H          1 MOL1         0.0997
      16    H11     21.721326   19.893291   20.271135 H          1 MOL1         0.0997
      17    C5      22.475838   18.140326   21.294278 C.3        1 MOL1        -0.2320
      18    H12     22.109292   17.232060   21.788206 H          1 MOL1         0.1008
      19    H13     23.056701   17.826076   20.417469 H          1 MOL1         0.1008
      20    H14     23.159440   18.654692   21.982115 H          1 MOL1         0.1008
@<TRIPOS>BOND
    1     1     2    1
    2     1     3    1
    3     1     4    1
    4     1     5    1
    5     5     6    1
    6     5     7    1
    7     5     8    1
    8     8     9    1
    9     8    10    1
   10     8    11    1
   11    11    12    1
   12    11    13    1
   13    11    14    1
   14    14    15    1
   15    14    16    1
   16    14    17    1
   17    17    18    1
   18    17    19    1
   19    17    20    1
@<TRIPOS>SUBSTRUCTURE
       1 MOL1            1 RESIDUE      1      MOL     
@<SCITEGIC>MOL_PROPERTY
VConf Rank
SciTegic.value.IntegerValue
948

@<SCITEGIC>MOL_PROPERTY
Conf_Id
SciTegic.value.IntegerValue
33

@<SCITEGIC>MOL_PROPERTY
Delta U+W
SciTegic.value.DoubleValue
0.703

@<SCITEGIC>MOL_PROPERTY
U+W
SciTegic.value.DoubleValue
-11.075

@<SCITEGIC>MOL_PROPERTY
Grad RMS
SciTegic.value.DoubleValue
0.000000

@<SCITEGIC>MOL_PROPERTY
U
SciTegic.value.DoubleValue
47.080

@<SCITEGIC>MOL_PROPERTY
W
SciTegic.value.DoubleValue
-58.154

@<SCITEGIC>MOL_PROPERTY
W(PB)
SciTegic.value.DoubleValue
-60.053

@<SCITEGIC>MOL_PROPERTY
W(SA)
SciTegic.value.DoubleValue
1.899

@<SCITEGIC>MOL_PROPERTY
Valence
SciTegic.value.DoubleValue
1.943

@<SCITEGIC>MOL_PROPERTY
Coulomb
SciTegic.value.DoubleValue
44.572

@<SCITEGIC>MOL_PROPERTY
VdW
SciTegic.value.DoubleValue
0.565

@<SCITEGIC>MOL_PROPERTY
VdW6
SciTegic.value.DoubleValue
-4.575

@<SCITEGIC>MOL_PROPERTY
VdW12
SciTegic.value.DoubleValue
5.139

@<SCITEGIC>MOL_PROPERTY
Bond
SciTegic.value.DoubleValue
0.158

@<SCITEGIC>MOL_PROPERTY
Angle
SciTegic.value.DoubleValue
0.700

@<SCITEGIC>MOL_PROPERTY
Pdih
SciTegic.value.DoubleValue
1.085

@<SCITEGIC>MOL_PROPERTY
Idih
SciTegic.value.DoubleValue
0.000

@<SCITEGIC>MOL_PROPERTY
Tether
SciTegic.value.DoubleValue
0.000

@<TRIPOS>MOLECULE
guest-s11_confgen4.mol2 : confsearch ligand conformer 949
          20          19           1
SMALL
USER_CHARGES
 
@<TRIPOS>ATOM
       1    N1      21.056541   21.737997   22.477353 N.4        1 MOL1        -0.5919
       2    H1      21.387492   22.580898   21.996218 H          1 MOL1         0.3682
       3    H2      20.588153   22.048853   23.334193 H          1 MOL1         0.3682
       4    H3      21.887661   21.210912   22.760829 H          1 MOL1         0.3682
       5    C1      20.136549   20.912903   21.598151 C.3        1 MOL1         0.0252
       6    H4      20.687706   20.634900   20.695719 H          1 MOL1         0.0971
       7    H5      19.300839   21.552873   21.302130 H          1 MOL1         0.0971
       8    C2      19.589299   19.645029   22.282893 C.3        1 MOL1        -0.1369
       9    H6      19.051296   19.925976   23.197942 H          1 MOL1         0.0997
      10    H7      18.850585   19.189943   21.611471 H          1 MOL1         0.0997
      11    C3      20.700128   18.616529   22.613594 C.3        1 MOL1        -0.1329
      12    H8      21.455431   19.088160   23.256005 H          1 MOL1         0.0997
      13    H9      21.219061   18.323132   21.690505 H          1 MOL1         0.0997
      14    C4      20.174202   17.351663   23.335047 C.3        1 MOL1        -0.1305
      15    H10     21.032852   16.733451   23.632496 H          1 MOL1         0.0997
      16    H11     19.666014   17.638852   24.266247 H          1 MOL1         0.0997
      17    C5      19.223844   16.496267   22.466208 C.3        1 MOL1        -0.2320
      18    H12     19.697513   16.222213   21.514611 H          1 MOL1         0.1008
      19    H13     18.958427   15.567645   22.987900 H          1 MOL1         0.1008
      20    H14     18.289858   17.027537   22.245541 H          1 MOL1         0.1008
@<TRIPOS>BOND
    1     1     2    1
    2     1     3    1
    3     1     4    1
    4     1     5    1
    5     5     6    1
    6     5     7    1
    7     5     8    1
    8     8     9    1
    9     8    10    1
   10     8    11    1
   11    11    12    1
   12    11    13    1
   13    11    14    1
   14    14    15    1
   15    14    16    1
   16    14    17    1
   17    17    18    1
   18    17    19    1
   19    17    20    1
@<TRIPOS>SUBSTRUCTURE
       1 MOL1            1 RESIDUE      1      MOL     
@<SCITEGIC>MOL_PROPERTY
VConf Rank
SciTegic.value.IntegerValue
949

@<SCITEGIC>MOL_PROPERTY
Conf_Id
SciTegic.value.IntegerValue
24

@<SCITEGIC>MOL_PROPERTY
Delta U+W
SciTegic.value.DoubleValue
0.847

@<SCITEGIC>MOL_PROPERTY
U+W
SciTegic.value.DoubleValue
-10.931

@<SCITEGIC>MOL_PROPERTY
Grad RMS
SciTegic.value.DoubleValue
0.000000

@<SCITEGIC>MOL_PROPERTY
U
SciTegic.value.DoubleValue
47.080

@<SCITEGIC>MOL_PROPERTY
W
SciTegic.value.DoubleValue
-58.011

@<SCITEGIC>MOL_PROPERTY
W(PB)
SciTegic.value.DoubleValue
-59.914

@<SCITEGIC>MOL_PROPERTY
W(SA)
SciTegic.value.DoubleValue
1.903

@<SCITEGIC>MOL_PROPERTY
Valence
SciTegic.value.DoubleValue
1.943

@<SCITEGIC>MOL_PROPERTY
Coulomb
SciTegic.value.DoubleValue
44.572

@<SCITEGIC>MOL_PROPERTY
VdW
SciTegic.value.DoubleValue
0.565

@<SCITEGIC>MOL_PROPERTY
VdW6
SciTegic.value.DoubleValue
-4.575

@<SCITEGIC>MOL_PROPERTY
VdW12
SciTegic.value.DoubleValue
5.140

@<SCITEGIC>MOL_PROPERTY
Bond
SciTegic.value.DoubleValue
0.158

@<SCITEGIC>MOL_PROPERTY
Angle
SciTegic.value.DoubleValue
0.700

@<SCITEGIC>MOL_PROPERTY
Pdih
SciTegic.value.DoubleValue
1.085

@<SCITEGIC>MOL_PROPERTY
Idih
SciTegic.value.DoubleValue
0.000

@<SCITEGIC>MOL_PROPERTY
Tether
SciTegic.value.DoubleValue
0.000

@<TRIPOS>MOLECULE
guest-s11_confgen4.mol2 : confsearch ligand conformer 950
          20          19           1
SMALL
USER_CHARGES
 
@<TRIPOS>ATOM
       1    N1      17.903371   19.736990   20.978578 N.4        1 MOL1        -0.5919
       2    H1      17.327835   19.060066   20.466698 H          1 MOL1         0.3682
       3    H2      17.371551   20.010173   21.810901 H          1 MOL1         0.3682
       4    H3      17.982066   20.568706   20.384974 H          1 MOL1         0.3682
       5    C1      19.260799   19.165903   21.335754 C.3        1 MOL1         0.0252
       6    H4      19.758010   18.870400   20.407940 H          1 MOL1         0.0971
       7    H5      19.099463   18.269449   21.940174 H          1 MOL1         0.0971
       8    C2      20.151126   20.158447   22.106987 C.3        1 MOL1        -0.1369
       9    H6      20.272451   21.071378   21.508992 H          1 MOL1         0.0997
      10    H7      19.648926   20.462774   23.034151 H          1 MOL1         0.0997
      11    C3      21.552725   19.581936   22.428159 C.3        1 MOL1        -0.1329
      12    H8      22.136145   20.342378   22.965385 H          1 MOL1         0.0997
      13    H9      22.088156   19.400656   21.485851 H          1 MOL1         0.0997
      14    C4      21.543409   18.271570   23.256458 C.3        1 MOL1        -0.1305
      15    H10     21.055384   17.467328   22.689181 H          1 MOL1         0.0997
      16    H11     22.582014   17.945581   23.407826 H          1 MOL1         0.0997
      17    C5      20.862780   18.421448   24.636055 C.3        1 MOL1        -0.2320
      18    H12     20.964970   17.496170   25.217710 H          1 MOL1         0.1008
      19    H13     21.319568   19.234154   25.215563 H          1 MOL1         0.1008
      20    H14     19.790531   18.630786   24.535578 H          1 MOL1         0.1008
@<TRIPOS>BOND
    1     1     2    1
    2     1     3    1
    3     1     4    1
    4     1     5    1
    5     5     6    1
    6     5     7    1
    7     5     8    1
    8     8     9    1
    9     8    10    1
   10     8    11    1
   11    11    12    1
   12    11    13    1
   13    11    14    1
   14    14    15    1
   15    14    16    1
   16    14    17    1
   17    17    18    1
   18    17    19    1
   19    17    20    1
@<TRIPOS>SUBSTRUCTURE
       1 MOL1            1 RESIDUE      1      MOL     
@<SCITEGIC>MOL_PROPERTY
VConf Rank
SciTegic.value.IntegerValue
950

@<SCITEGIC>MOL_PROPERTY
Conf_Id
SciTegic.value.IntegerValue
64

@<SCITEGIC>MOL_PROPERTY
Delta U+W
SciTegic.value.DoubleValue
0.707

@<SCITEGIC>MOL_PROPERTY
U+W
SciTegic.value.DoubleValue
-11.070

@<SCITEGIC>MOL_PROPERTY
Grad RMS
SciTegic.value.DoubleValue
0.000000

@<SCITEGIC>MOL_PROPERTY
U
SciTegic.value.DoubleValue
47.077

@<SCITEGIC>MOL_PROPERTY
W
SciTegic.value.DoubleValue
-58.148

@<SCITEGIC>MOL_PROPERTY
W(PB)
SciTegic.value.DoubleValue
-60.054

@<SCITEGIC>MOL_PROPERTY
W(SA)
SciTegic.value.DoubleValue
1.906

@<SCITEGIC>MOL_PROPERTY
Valence
SciTegic.value.DoubleValue
2.039

@<SCITEGIC>MOL_PROPERTY
Coulomb
SciTegic.value.DoubleValue
44.655

@<SCITEGIC>MOL_PROPERTY
VdW
SciTegic.value.DoubleValue
0.383

@<SCITEGIC>MOL_PROPERTY
VdW6
SciTegic.value.DoubleValue
-4.912

@<SCITEGIC>MOL_PROPERTY
VdW12
SciTegic.value.DoubleValue
5.295

@<SCITEGIC>MOL_PROPERTY
Bond
SciTegic.value.DoubleValue
0.159

@<SCITEGIC>MOL_PROPERTY
Angle
SciTegic.value.DoubleValue
0.856

@<SCITEGIC>MOL_PROPERTY
Pdih
SciTegic.value.DoubleValue
1.024

@<SCITEGIC>MOL_PROPERTY
Idih
SciTegic.value.DoubleValue
0.000

@<SCITEGIC>MOL_PROPERTY
Tether
SciTegic.value.DoubleValue
0.000

@<TRIPOS>MOLECULE
guest-s11_confgen4.mol2 : confsearch ligand conformer 951
          20          19           1
SMALL
USER_CHARGES
 
@<TRIPOS>ATOM
       1    N1      21.841435   18.173263   24.504934 N.4        1 MOL1        -0.5919
       2    H1      22.003894   18.856614   25.251222 H          1 MOL1         0.3682
       3    H2      21.121655   17.525743   24.840876 H          1 MOL1         0.3682
       4    H3      22.706112   17.631174   24.405125 H          1 MOL1         0.3682
       5    C1      21.441326   18.839881   23.204219 C.3        1 MOL1         0.0252
       6    H4      21.315322   18.057774   22.450949 H          1 MOL1         0.0971
       7    H5      22.262567   19.490136   22.890993 H          1 MOL1         0.0971
       8    C2      20.144388   19.662810   23.319816 C.3        1 MOL1        -0.1369
       9    H6      19.321292   19.012829   23.643067 H          1 MOL1         0.0997
      10    H7      20.267423   20.417999   24.107415 H          1 MOL1         0.0997
      11    C3      19.767713   20.376990   21.997674 C.3        1 MOL1        -0.1329
      12    H8      20.545722   21.114649   21.756727 H          1 MOL1         0.0997
      13    H9      18.844552   20.951997   22.153891 H          1 MOL1         0.0997
      14    C4      19.578770   19.435831   20.780405 C.3        1 MOL1        -0.1305
      15    H10     19.334278   20.046687   19.900086 H          1 MOL1         0.0997
      16    H11     20.523904   18.929262   20.541900 H          1 MOL1         0.0997
      17    C5      18.462892   18.385683   20.982917 C.3        1 MOL1        -0.2320
      18    H12     17.510866   18.866228   21.243111 H          1 MOL1         0.1008
      19    H13     18.306693   17.808322   20.062504 H          1 MOL1         0.1008
      20    H14     18.718411   17.674762   21.778490 H          1 MOL1         0.1008
@<TRIPOS>BOND
    1     1     2    1
    2     1     3    1
    3     1     4    1
    4     1     5    1
    5     5     6    1
    6     5     7    1
    7     5     8    1
    8     8     9    1
    9     8    10    1
   10     8    11    1
   11    11    12    1
   12    11    13    1
   13    11    14    1
   14    14    15    1
   15    14    16    1
   16    14    17    1
   17    17    18    1
   18    17    19    1
   19    17    20    1
@<TRIPOS>SUBSTRUCTURE
       1 MOL1            1 RESIDUE      1      MOL     
@<SCITEGIC>MOL_PROPERTY
VConf Rank
SciTegic.value.IntegerValue
951

@<SCITEGIC>MOL_PROPERTY
Conf_Id
SciTegic.value.IntegerValue
22

@<SCITEGIC>MOL_PROPERTY
Delta U+W
SciTegic.value.DoubleValue
0.731

@<SCITEGIC>MOL_PROPERTY
U+W
SciTegic.value.DoubleValue
-11.047

@<SCITEGIC>MOL_PROPERTY
Grad RMS
SciTegic.value.DoubleValue
0.000000

@<SCITEGIC>MOL_PROPERTY
U
SciTegic.value.DoubleValue
47.078

@<SCITEGIC>MOL_PROPERTY
W
SciTegic.value.DoubleValue
-58.125

@<SCITEGIC>MOL_PROPERTY
W(PB)
SciTegic.value.DoubleValue
-60.031

@<SCITEGIC>MOL_PROPERTY
W(SA)
SciTegic.value.DoubleValue
1.906

@<SCITEGIC>MOL_PROPERTY
Valence
SciTegic.value.DoubleValue
2.039

@<SCITEGIC>MOL_PROPERTY
Coulomb
SciTegic.value.DoubleValue
44.655

@<SCITEGIC>MOL_PROPERTY
VdW
SciTegic.value.DoubleValue
0.383

@<SCITEGIC>MOL_PROPERTY
VdW6
SciTegic.value.DoubleValue
-4.913

@<SCITEGIC>MOL_PROPERTY
VdW12
SciTegic.value.DoubleValue
5.296

@<SCITEGIC>MOL_PROPERTY
Bond
SciTegic.value.DoubleValue
0.159

@<SCITEGIC>MOL_PROPERTY
Angle
SciTegic.value.DoubleValue
0.856

@<SCITEGIC>MOL_PROPERTY
Pdih
SciTegic.value.DoubleValue
1.024

@<SCITEGIC>MOL_PROPERTY
Idih
SciTegic.value.DoubleValue
0.000

@<SCITEGIC>MOL_PROPERTY
Tether
SciTegic.value.DoubleValue
0.000

@<TRIPOS>MOLECULE
guest-s11_confgen4.mol2 : confsearch ligand conformer 952
          20          19           1
SMALL
USER_CHARGES
 
@<TRIPOS>ATOM
       1    N1      19.428817   16.927794   21.147409 N.4        1 MOL1        -0.5919
       2    H1      19.078168   17.310275   20.263617 H          1 MOL1         0.3682
       3    H2      20.223327   16.322020   20.919148 H          1 MOL1         0.3682
       4    H3      18.691513   16.321904   21.522606 H          1 MOL1         0.3682
       5    C1      19.812130   18.020466   22.125034 C.3        1 MOL1         0.0252
       6    H4      20.149237   17.544232   23.049672 H          1 MOL1         0.0971
       7    H5      18.913193   18.602244   22.341170 H          1 MOL1         0.0971
       8    C2      20.914012   18.951577   21.588786 C.3        1 MOL1        -0.1369
       9    H6      21.766075   18.339681   21.263984 H          1 MOL1         0.0997
      10    H7      20.548428   19.473356   20.694425 H          1 MOL1         0.0997
      11    C3      21.420516   19.987180   22.624590 C.3        1 MOL1        -0.1329
      12    H8      22.259335   20.529035   22.165974 H          1 MOL1         0.0997
      13    H9      21.842423   19.473037   23.499233 H          1 MOL1         0.0997
      14    C4      20.365176   21.030727   23.074543 C.3        1 MOL1        -0.1305
      15    H10     20.891619   21.952708   23.358994 H          1 MOL1         0.0997
      16    H11     19.714618   21.302966   22.231691 H          1 MOL1         0.0997
      17    C5      19.514306   20.580015   24.285210 C.3        1 MOL1        -0.2320
      18    H12     18.885923   19.714059   24.052554 H          1 MOL1         0.1008
      19    H13     20.152316   20.318438   25.139331 H          1 MOL1         0.1008
      20    H14     18.847475   21.390896   24.605825 H          1 MOL1         0.1008
@<TRIPOS>BOND
    1     1     2    1
    2     1     3    1
    3     1     4    1
    4     1     5    1
    5     5     6    1
    6     5     7    1
    7     5     8    1
    8     8     9    1
    9     8    10    1
   10     8    11    1
   11    11    12    1
   12    11    13    1
   13    11    14    1
   14    14    15    1
   15    14    16    1
   16    14    17    1
   17    17    18    1
   18    17    19    1
   19    17    20    1
@<TRIPOS>SUBSTRUCTURE
       1 MOL1            1 RESIDUE      1      MOL     
@<SCITEGIC>MOL_PROPERTY
VConf Rank
SciTegic.value.IntegerValue
952

@<SCITEGIC>MOL_PROPERTY
Conf_Id
SciTegic.value.IntegerValue
61

@<SCITEGIC>MOL_PROPERTY
Delta U+W
SciTegic.value.DoubleValue
2.669

@<SCITEGIC>MOL_PROPERTY
U+W
SciTegic.value.DoubleValue
-9.108

@<SCITEGIC>MOL_PROPERTY
Grad RMS
SciTegic.value.DoubleValue
0.000000

@<SCITEGIC>MOL_PROPERTY
U
SciTegic.value.DoubleValue
48.916

@<SCITEGIC>MOL_PROPERTY
W
SciTegic.value.DoubleValue
-58.025

@<SCITEGIC>MOL_PROPERTY
W(PB)
SciTegic.value.DoubleValue
-59.935

@<SCITEGIC>MOL_PROPERTY
W(SA)
SciTegic.value.DoubleValue
1.911

@<SCITEGIC>MOL_PROPERTY
Valence
SciTegic.value.DoubleValue
3.785

@<SCITEGIC>MOL_PROPERTY
Coulomb
SciTegic.value.DoubleValue
44.716

@<SCITEGIC>MOL_PROPERTY
VdW
SciTegic.value.DoubleValue
0.415

@<SCITEGIC>MOL_PROPERTY
VdW6
SciTegic.value.DoubleValue
-4.836

@<SCITEGIC>MOL_PROPERTY
VdW12
SciTegic.value.DoubleValue
5.251

@<SCITEGIC>MOL_PROPERTY
Bond
SciTegic.value.DoubleValue
0.175

@<SCITEGIC>MOL_PROPERTY
Angle
SciTegic.value.DoubleValue
1.195

@<SCITEGIC>MOL_PROPERTY
Pdih
SciTegic.value.DoubleValue
2.415

@<SCITEGIC>MOL_PROPERTY
Idih
SciTegic.value.DoubleValue
0.000

@<SCITEGIC>MOL_PROPERTY
Tether
SciTegic.value.DoubleValue
0.000

@<TRIPOS>MOLECULE
guest-s11_confgen4.mol2 : confsearch ligand conformer 953
          20          19           1
SMALL
USER_CHARGES
 
@<TRIPOS>ATOM
       1    N1      18.358833   17.658719   22.849646 N.4        1 MOL1        -0.5919
       2    H1      18.017467   16.693299   22.794189 H          1 MOL1         0.3682
       3    H2      17.570036   18.234730   23.159989 H          1 MOL1         0.3682
       4    H3      18.589785   17.951029   21.896629 H          1 MOL1         0.3682
       5    C1      19.547105   17.781513   23.784259 C.3        1 MOL1         0.0252
       6    H4      20.333638   17.105083   23.439085 H          1 MOL1         0.0971
       7    H5      19.214640   17.438880   24.767941 H          1 MOL1         0.0971
       8    C2      20.107830   19.213198   23.915951 C.3        1 MOL1        -0.1369
       9    H6      19.283691   19.934587   23.994740 H          1 MOL1         0.0997
      10    H7      20.651133   19.272313   24.868420 H          1 MOL1         0.0997
      11    C3      21.084506   19.629594   22.786133 C.3        1 MOL1        -0.1329
      12    H8      21.932427   18.931183   22.759345 H          1 MOL1         0.0997
      13    H9      21.505812   20.611333   23.043370 H          1 MOL1         0.0997
      14    C4      20.441907   19.714674   21.381805 C.3        1 MOL1        -0.1305
      15    H10     20.148997   18.713733   21.040966 H          1 MOL1         0.0997
      16    H11     19.529810   20.326393   21.424475 H          1 MOL1         0.0997
      17    C5      21.414450   20.320797   20.347496 C.3        1 MOL1        -0.2320
      18    H12     20.947104   20.365218   19.355193 H          1 MOL1         0.1008
      19    H13     21.704674   21.341728   20.628017 H          1 MOL1         0.1008
      20    H14     22.327454   19.717028   20.262901 H          1 MOL1         0.1008
@<TRIPOS>BOND
    1     1     2    1
    2     1     3    1
    3     1     4    1
    4     1     5    1
    5     5     6    1
    6     5     7    1
    7     5     8    1
    8     8     9    1
    9     8    10    1
   10     8    11    1
   11    11    12    1
   12    11    13    1
   13    11    14    1
   14    14    15    1
   15    14    16    1
   16    14    17    1
   17    17    18    1
   18    17    19    1
   19    17    20    1
@<TRIPOS>SUBSTRUCTURE
       1 MOL1            1 RESIDUE      1      MOL     
@<SCITEGIC>MOL_PROPERTY
VConf Rank
SciTegic.value.IntegerValue
953

@<SCITEGIC>MOL_PROPERTY
Conf_Id
SciTegic.value.IntegerValue
69

@<SCITEGIC>MOL_PROPERTY
Delta U+W
SciTegic.value.DoubleValue
2.811

@<SCITEGIC>MOL_PROPERTY
U+W
SciTegic.value.DoubleValue
-8.967

@<SCITEGIC>MOL_PROPERTY
Grad RMS
SciTegic.value.DoubleValue
0.000000

@<SCITEGIC>MOL_PROPERTY
U
SciTegic.value.DoubleValue
49.216

@<SCITEGIC>MOL_PROPERTY
W
SciTegic.value.DoubleValue
-58.183

@<SCITEGIC>MOL_PROPERTY
W(PB)
SciTegic.value.DoubleValue
-60.064

@<SCITEGIC>MOL_PROPERTY
W(SA)
SciTegic.value.DoubleValue
1.881

@<SCITEGIC>MOL_PROPERTY
Valence
SciTegic.value.DoubleValue
2.929

@<SCITEGIC>MOL_PROPERTY
Coulomb
SciTegic.value.DoubleValue
46.006

@<SCITEGIC>MOL_PROPERTY
VdW
SciTegic.value.DoubleValue
0.281

@<SCITEGIC>MOL_PROPERTY
VdW6
SciTegic.value.DoubleValue
-4.909

@<SCITEGIC>MOL_PROPERTY
VdW12
SciTegic.value.DoubleValue
5.190

@<SCITEGIC>MOL_PROPERTY
Bond
SciTegic.value.DoubleValue
0.156

@<SCITEGIC>MOL_PROPERTY
Angle
SciTegic.value.DoubleValue
0.974

@<SCITEGIC>MOL_PROPERTY
Pdih
SciTegic.value.DoubleValue
1.799

@<SCITEGIC>MOL_PROPERTY
Idih
SciTegic.value.DoubleValue
0.000

@<SCITEGIC>MOL_PROPERTY
Tether
SciTegic.value.DoubleValue
0.000

@<TRIPOS>MOLECULE
guest-s11_confgen4.mol2 : confsearch ligand conformer 954
          20          19           1
SMALL
USER_CHARGES
 
@<TRIPOS>ATOM
       1    N1      18.914433   18.418388   20.595456 N.4        1 MOL1        -0.5919
       2    H1      18.775225   18.004862   21.521007 H          1 MOL1         0.3682
       3    H2      18.132446   19.059799   20.429950 H          1 MOL1         0.3682
       4    H3      18.826371   17.660276   19.910508 H          1 MOL1         0.3682
       5    C1      20.253047   19.122926   20.484515 C.3        1 MOL1         0.0252
       6    H4      20.320238   19.519623   19.467817 H          1 MOL1         0.0971
       7    H5      21.048048   18.383228   20.611640 H          1 MOL1         0.0971
       8    C2      20.448375   20.279640   21.487180 C.3        1 MOL1        -0.1369
       9    H6      21.213220   20.951839   21.076046 H          1 MOL1         0.0997
      10    H7      19.529466   20.876774   21.556831 H          1 MOL1         0.0997
      11    C3      20.914210   19.837893   22.898431 C.3        1 MOL1        -0.1329
      12    H8      21.130846   20.741456   23.485050 H          1 MOL1         0.0997
      13    H9      21.864518   19.292353   22.816174 H          1 MOL1         0.0997
      14    C4      19.889381   18.974886   23.671255 C.3        1 MOL1        -0.1305
      15    H10     18.906359   19.466381   23.664747 H          1 MOL1         0.0997
      16    H11     19.771541   18.000885   23.180044 H          1 MOL1         0.0997
      17    C5      20.331621   18.738488   25.131240 C.3        1 MOL1        -0.2320
      18    H12     20.424341   19.687521   25.675264 H          1 MOL1         0.1008
      19    H13     19.599173   18.117008   25.662593 H          1 MOL1         0.1008
      20    H14     21.301215   18.225159   25.171872 H          1 MOL1         0.1008
@<TRIPOS>BOND
    1     1     2    1
    2     1     3    1
    3     1     4    1
    4     1     5    1
    5     5     6    1
    6     5     7    1
    7     5     8    1
    8     8     9    1
    9     8    10    1
   10     8    11    1
   11    11    12    1
   12    11    13    1
   13    11    14    1
   14    14    15    1
   15    14    16    1
   16    14    17    1
   17    17    18    1
   18    17    19    1
   19    17    20    1
@<TRIPOS>SUBSTRUCTURE
       1 MOL1            1 RESIDUE      1      MOL     
@<SCITEGIC>MOL_PROPERTY
VConf Rank
SciTegic.value.IntegerValue
954

@<SCITEGIC>MOL_PROPERTY
Conf_Id
SciTegic.value.IntegerValue
26

@<SCITEGIC>MOL_PROPERTY
Delta U+W
SciTegic.value.DoubleValue
2.809

@<SCITEGIC>MOL_PROPERTY
U+W
SciTegic.value.DoubleValue
-8.969

@<SCITEGIC>MOL_PROPERTY
Grad RMS
SciTegic.value.DoubleValue
0.000000

@<SCITEGIC>MOL_PROPERTY
U
SciTegic.value.DoubleValue
49.216

@<SCITEGIC>MOL_PROPERTY
W
SciTegic.value.DoubleValue
-58.185

@<SCITEGIC>MOL_PROPERTY
W(PB)
SciTegic.value.DoubleValue
-60.088

@<SCITEGIC>MOL_PROPERTY
W(SA)
SciTegic.value.DoubleValue
1.903

@<SCITEGIC>MOL_PROPERTY
Valence
SciTegic.value.DoubleValue
2.929

@<SCITEGIC>MOL_PROPERTY
Coulomb
SciTegic.value.DoubleValue
46.006

@<SCITEGIC>MOL_PROPERTY
VdW
SciTegic.value.DoubleValue
0.281

@<SCITEGIC>MOL_PROPERTY
VdW6
SciTegic.value.DoubleValue
-4.909

@<SCITEGIC>MOL_PROPERTY
VdW12
SciTegic.value.DoubleValue
5.190

@<SCITEGIC>MOL_PROPERTY
Bond
SciTegic.value.DoubleValue
0.156

@<SCITEGIC>MOL_PROPERTY
Angle
SciTegic.value.DoubleValue
0.974

@<SCITEGIC>MOL_PROPERTY
Pdih
SciTegic.value.DoubleValue
1.799

@<SCITEGIC>MOL_PROPERTY
Idih
SciTegic.value.DoubleValue
0.000

@<SCITEGIC>MOL_PROPERTY
Tether
SciTegic.value.DoubleValue
0.000

@<TRIPOS>MOLECULE
guest-s11_confgen4.mol2 : confsearch ligand conformer 955
          20          19           1
SMALL
USER_CHARGES
 
@<TRIPOS>ATOM
       1    N1      20.810718   16.860207   22.662173 N.4        1 MOL1        -0.5919
       2    H1      21.104187   17.335334   23.520699 H          1 MOL1         0.3682
       3    H2      20.089810   16.180499   22.923566 H          1 MOL1         0.3682
       4    H3      21.617151   16.324775   22.324108 H          1 MOL1         0.3682
       5    C1      20.309098   17.841801   21.621092 C.3        1 MOL1         0.0252
       6    H4      20.044301   17.271898   20.726328 H          1 MOL1         0.0971
       7    H5      21.131657   18.514123   21.363581 H          1 MOL1         0.0971
       8    C2      19.089703   18.665377   22.082710 C.3        1 MOL1        -0.1369
       9    H6      18.747603   19.289557   21.247308 H          1 MOL1         0.0997
      10    H7      18.259056   17.982934   22.306170 H          1 MOL1         0.0997
      11    C3      19.364210   19.558187   23.321472 C.3        1 MOL1        -0.1329
      12    H8      19.546718   18.919804   24.196323 H          1 MOL1         0.0997
      13    H9      18.454448   20.128337   23.554844 H          1 MOL1         0.0997
      14    C4      20.550292   20.543620   23.162842 C.3        1 MOL1        -0.1305
      15    H10     20.667170   21.105421   24.100163 H          1 MOL1         0.0997
      16    H11     21.488852   19.990093   23.024245 H          1 MOL1         0.0997
      17    C5      20.363013   21.546445   22.001760 C.3        1 MOL1        -0.2320
      18    H12     19.422229   22.102002   22.107804 H          1 MOL1         0.1008
      19    H13     21.183381   22.275605   21.987333 H          1 MOL1         0.1008
      20    H14     20.355276   21.039375   21.028918 H          1 MOL1         0.1008
@<TRIPOS>BOND
    1     1     2    1
    2     1     3    1
    3     1     4    1
    4     1     5    1
    5     5     6    1
    6     5     7    1
    7     5     8    1
    8     8     9    1
    9     8    10    1
   10     8    11    1
   11    11    12    1
   12    11    13    1
   13    11    14    1
   14    14    15    1
   15    14    16    1
   16    14    17    1
   17    17    18    1
   18    17    19    1
   19    17    20    1
@<TRIPOS>SUBSTRUCTURE
       1 MOL1            1 RESIDUE      1      MOL     
@<SCITEGIC>MOL_PROPERTY
VConf Rank
SciTegic.value.IntegerValue
955

@<SCITEGIC>MOL_PROPERTY
Conf_Id
SciTegic.value.IntegerValue
2

@<SCITEGIC>MOL_PROPERTY
Delta U+W
SciTegic.value.DoubleValue
0.994

@<SCITEGIC>MOL_PROPERTY
U+W
SciTegic.value.DoubleValue
-10.784

@<SCITEGIC>MOL_PROPERTY
Grad RMS
SciTegic.value.DoubleValue
0.000000

@<SCITEGIC>MOL_PROPERTY
U
SciTegic.value.DoubleValue
47.562

@<SCITEGIC>MOL_PROPERTY
W
SciTegic.value.DoubleValue
-58.346

@<SCITEGIC>MOL_PROPERTY
W(PB)
SciTegic.value.DoubleValue
-60.221

@<SCITEGIC>MOL_PROPERTY
W(SA)
SciTegic.value.DoubleValue
1.875

@<SCITEGIC>MOL_PROPERTY
Valence
SciTegic.value.DoubleValue
2.149

@<SCITEGIC>MOL_PROPERTY
Coulomb
SciTegic.value.DoubleValue
45.034

@<SCITEGIC>MOL_PROPERTY
VdW
SciTegic.value.DoubleValue
0.378

@<SCITEGIC>MOL_PROPERTY
VdW6
SciTegic.value.DoubleValue
-5.599

@<SCITEGIC>MOL_PROPERTY
VdW12
SciTegic.value.DoubleValue
5.977

@<SCITEGIC>MOL_PROPERTY
Bond
SciTegic.value.DoubleValue
0.185

@<SCITEGIC>MOL_PROPERTY
Angle
SciTegic.value.DoubleValue
0.935

@<SCITEGIC>MOL_PROPERTY
Pdih
SciTegic.value.DoubleValue
1.028

@<SCITEGIC>MOL_PROPERTY
Idih
SciTegic.value.DoubleValue
0.000

@<SCITEGIC>MOL_PROPERTY
Tether
SciTegic.value.DoubleValue
0.000

@<TRIPOS>MOLECULE
guest-s11_confgen4.mol2 : confsearch ligand conformer 956
          20          19           1
SMALL
USER_CHARGES
 
@<TRIPOS>ATOM
       1    N1      20.524405   21.458575   22.171774 N.4        1 MOL1        -0.5919
       2    H1      21.191356   21.748413   21.449826 H          1 MOL1         0.3682
       3    H2      19.647801   21.223578   21.697135 H          1 MOL1         0.3682
       4    H3      20.339439   22.281460   22.754831 H          1 MOL1         0.3682
       5    C1      21.049207   20.294565   22.989490 C.3        1 MOL1         0.0252
       6    H4      20.308887   20.057999   23.758188 H          1 MOL1         0.0971
       7    H5      21.963742   20.624526   23.489749 H          1 MOL1         0.0971
       8    C2      21.349889   19.034832   22.152263 C.3        1 MOL1        -0.1369
       9    H6      22.118779   19.274570   21.405957 H          1 MOL1         0.0997
      10    H7      21.794473   18.273470   22.805873 H          1 MOL1         0.0997
      11    C3      20.108128   18.443822   21.434119 C.3        1 MOL1        -0.1329
      12    H8      20.410921   17.536337   20.893763 H          1 MOL1         0.0997
      13    H9      19.764895   19.147169   20.663599 H          1 MOL1         0.0997
      14    C4      18.918609   18.101900   22.367483 C.3        1 MOL1        -0.1305
      15    H10     18.536408   19.013623   22.846210 H          1 MOL1         0.0997
      16    H11     18.092607   17.713968   21.755046 H          1 MOL1         0.0997
      17    C5      19.269588   17.055694   23.449660 C.3        1 MOL1        -0.2320
      18    H12     20.012348   17.442800   24.158222 H          1 MOL1         0.1008
      19    H13     18.375509   16.782807   24.025021 H          1 MOL1         0.1008
      20    H14     19.670218   16.139167   22.997517 H          1 MOL1         0.1008
@<TRIPOS>BOND
    1     1     2    1
    2     1     3    1
    3     1     4    1
    4     1     5    1
    5     5     6    1
    6     5     7    1
    7     5     8    1
    8     8     9    1
    9     8    10    1
   10     8    11    1
   11    11    12    1
   12    11    13    1
   13    11    14    1
   14    14    15    1
   15    14    16    1
   16    14    17    1
   17    17    18    1
   18    17    19    1
   19    17    20    1
@<TRIPOS>SUBSTRUCTURE
       1 MOL1            1 RESIDUE      1      MOL     
@<SCITEGIC>MOL_PROPERTY
VConf Rank
SciTegic.value.IntegerValue
956

@<SCITEGIC>MOL_PROPERTY
Conf_Id
SciTegic.value.IntegerValue
1

@<SCITEGIC>MOL_PROPERTY
Delta U+W
SciTegic.value.DoubleValue
1.032

@<SCITEGIC>MOL_PROPERTY
U+W
SciTegic.value.DoubleValue
-10.746

@<SCITEGIC>MOL_PROPERTY
Grad RMS
SciTegic.value.DoubleValue
0.000000

@<SCITEGIC>MOL_PROPERTY
U
SciTegic.value.DoubleValue
47.562

@<SCITEGIC>MOL_PROPERTY
W
SciTegic.value.DoubleValue
-58.308

@<SCITEGIC>MOL_PROPERTY
W(PB)
SciTegic.value.DoubleValue
-60.184

@<SCITEGIC>MOL_PROPERTY
W(SA)
SciTegic.value.DoubleValue
1.877

@<SCITEGIC>MOL_PROPERTY
Valence
SciTegic.value.DoubleValue
2.149

@<SCITEGIC>MOL_PROPERTY
Coulomb
SciTegic.value.DoubleValue
45.035

@<SCITEGIC>MOL_PROPERTY
VdW
SciTegic.value.DoubleValue
0.378

@<SCITEGIC>MOL_PROPERTY
VdW6
SciTegic.value.DoubleValue
-5.599

@<SCITEGIC>MOL_PROPERTY
VdW12
SciTegic.value.DoubleValue
5.978

@<SCITEGIC>MOL_PROPERTY
Bond
SciTegic.value.DoubleValue
0.185

@<SCITEGIC>MOL_PROPERTY
Angle
SciTegic.value.DoubleValue
0.935

@<SCITEGIC>MOL_PROPERTY
Pdih
SciTegic.value.DoubleValue
1.028

@<SCITEGIC>MOL_PROPERTY
Idih
SciTegic.value.DoubleValue
0.000

@<SCITEGIC>MOL_PROPERTY
Tether
SciTegic.value.DoubleValue
0.000

@<TRIPOS>MOLECULE
guest-s11_confgen4.mol2 : confsearch ligand conformer 957
          20          19           1
SMALL
USER_CHARGES
 
@<TRIPOS>ATOM
       1    N1      18.433950   20.503215   21.955410 N.4        1 MOL1        -0.5919
       2    H1      17.507043   20.083286   21.834609 H          1 MOL1         0.3682
       3    H2      18.605025   20.574874   22.962525 H          1 MOL1         0.3682
       4    H3      18.376985   21.460545   21.592615 H          1 MOL1         0.3682
       5    C1      19.513232   19.699468   21.256198 C.3        1 MOL1         0.0252
       6    H4      20.463223   20.216895   21.398699 H          1 MOL1         0.0971
       7    H5      19.285202   19.704042   20.186850 H          1 MOL1         0.0971
       8    C2      19.618239   18.238961   21.744675 C.3        1 MOL1        -0.1369
       9    H6      18.642493   17.758469   21.593461 H          1 MOL1         0.0997
      10    H7      20.324434   17.691908   21.106207 H          1 MOL1         0.0997
      11    C3      20.030935   18.079655   23.232837 C.3        1 MOL1        -0.1329
      12    H8      19.676310   17.098233   23.577038 H          1 MOL1         0.0997
      13    H9      19.510197   18.814586   23.860078 H          1 MOL1         0.0997
      14    C4      21.556792   18.140663   23.501300 C.3        1 MOL1        -0.1305
      15    H10     21.728138   17.924019   24.565092 H          1 MOL1         0.0997
      16    H11     22.063471   17.340156   22.944302 H          1 MOL1         0.0997
      17    C5      22.215427   19.496747   23.164896 C.3        1 MOL1        -0.2320
      18    H12     21.662644   20.331452   23.614849 H          1 MOL1         0.1008
      19    H13     23.242557   19.528455   23.550808 H          1 MOL1         0.1008
      20    H14     22.272991   19.655132   22.081543 H          1 MOL1         0.1008
@<TRIPOS>BOND
    1     1     2    1
    2     1     3    1
    3     1     4    1
    4     1     5    1
    5     5     6    1
    6     5     7    1
    7     5     8    1
    8     8     9    1
    9     8    10    1
   10     8    11    1
   11    11    12    1
   12    11    13    1
   13    11    14    1
   14    14    15    1
   15    14    16    1
   16    14    17    1
   17    17    18    1
   18    17    19    1
   19    17    20    1
@<TRIPOS>SUBSTRUCTURE
       1 MOL1            1 RESIDUE      1      MOL     
@<SCITEGIC>MOL_PROPERTY
VConf Rank
SciTegic.value.IntegerValue
957

@<SCITEGIC>MOL_PROPERTY
Conf_Id
SciTegic.value.IntegerValue
80

@<SCITEGIC>MOL_PROPERTY
Delta U+W
SciTegic.value.DoubleValue
2.920

@<SCITEGIC>MOL_PROPERTY
U+W
SciTegic.value.DoubleValue
-8.857

@<SCITEGIC>MOL_PROPERTY
Grad RMS
SciTegic.value.DoubleValue
0.000000

@<SCITEGIC>MOL_PROPERTY
U
SciTegic.value.DoubleValue
49.434

@<SCITEGIC>MOL_PROPERTY
W
SciTegic.value.DoubleValue
-58.292

@<SCITEGIC>MOL_PROPERTY
W(PB)
SciTegic.value.DoubleValue
-60.170

@<SCITEGIC>MOL_PROPERTY
W(SA)
SciTegic.value.DoubleValue
1.879

@<SCITEGIC>MOL_PROPERTY
Valence
SciTegic.value.DoubleValue
3.798

@<SCITEGIC>MOL_PROPERTY
Coulomb
SciTegic.value.DoubleValue
45.253

@<SCITEGIC>MOL_PROPERTY
VdW
SciTegic.value.DoubleValue
0.384

@<SCITEGIC>MOL_PROPERTY
VdW6
SciTegic.value.DoubleValue
-5.595

@<SCITEGIC>MOL_PROPERTY
VdW12
SciTegic.value.DoubleValue
5.979

@<SCITEGIC>MOL_PROPERTY
Bond
SciTegic.value.DoubleValue
0.198

@<SCITEGIC>MOL_PROPERTY
Angle
SciTegic.value.DoubleValue
1.368

@<SCITEGIC>MOL_PROPERTY
Pdih
SciTegic.value.DoubleValue
2.231

@<SCITEGIC>MOL_PROPERTY
Idih
SciTegic.value.DoubleValue
0.000

@<SCITEGIC>MOL_PROPERTY
Tether
SciTegic.value.DoubleValue
0.000

@<TRIPOS>MOLECULE
guest-s11_confgen4.mol2 : confsearch ligand conformer 958
          20          19           1
SMALL
USER_CHARGES
 
@<TRIPOS>ATOM
       1    N1      19.097553   17.522784   21.291910 N.4        1 MOL1        -0.5919
       2    H1      19.055944   17.590301   20.270244 H          1 MOL1         0.3682
       3    H2      18.802596   16.572638   21.540041 H          1 MOL1         0.3682
       4    H3      18.391202   18.162539   21.666702 H          1 MOL1         0.3682
       5    C1      20.482552   17.838952   21.822544 C.3        1 MOL1         0.0252
       6    H4      21.169035   17.092450   21.413889 H          1 MOL1         0.0971
       7    H5      20.462755   17.718336   22.906784 H          1 MOL1         0.0971
       8    C2      20.987099   19.248821   21.447805 C.3        1 MOL1        -0.1369
       9    H6      22.036926   19.352182   21.752433 H          1 MOL1         0.0997
      10    H7      20.982600   19.332074   20.352876 H          1 MOL1         0.0997
      11    C3      20.154917   20.416345   22.043361 C.3        1 MOL1        -0.1329
      12    H8      19.080905   20.200242   21.976142 H          1 MOL1         0.0997
      13    H9      20.315205   21.300493   21.410895 H          1 MOL1         0.0997
      14    C4      20.525513   20.812914   23.495750 C.3        1 MOL1        -0.1305
      15    H10     21.579620   21.120841   23.538441 H          1 MOL1         0.0997
      16    H11     19.939630   21.701380   23.770188 H          1 MOL1         0.0997
      17    C5      20.268953   19.712117   24.548533 C.3        1 MOL1        -0.2320
      18    H12     20.991921   18.893238   24.454688 H          1 MOL1         0.1008
      19    H13     20.374065   20.120999   25.561793 H          1 MOL1         0.1008
      20    H14     19.255538   19.300601   24.456861 H          1 MOL1         0.1008
@<TRIPOS>BOND
    1     1     2    1
    2     1     3    1
    3     1     4    1
    4     1     5    1
    5     5     6    1
    6     5     7    1
    7     5     8    1
    8     8     9    1
    9     8    10    1
   10     8    11    1
   11    11    12    1
   12    11    13    1
   13    11    14    1
   14    14    15    1
   15    14    16    1
   16    14    17    1
   17    17    18    1
   18    17    19    1
   19    17    20    1
@<TRIPOS>SUBSTRUCTURE
       1 MOL1            1 RESIDUE      1      MOL     
@<SCITEGIC>MOL_PROPERTY
VConf Rank
SciTegic.value.IntegerValue
958

@<SCITEGIC>MOL_PROPERTY
Conf_Id
SciTegic.value.IntegerValue
65

@<SCITEGIC>MOL_PROPERTY
Delta U+W
SciTegic.value.DoubleValue
2.949

@<SCITEGIC>MOL_PROPERTY
U+W
SciTegic.value.DoubleValue
-8.829

@<SCITEGIC>MOL_PROPERTY
Grad RMS
SciTegic.value.DoubleValue
0.000000

@<SCITEGIC>MOL_PROPERTY
U
SciTegic.value.DoubleValue
49.435

@<SCITEGIC>MOL_PROPERTY
W
SciTegic.value.DoubleValue
-58.263

@<SCITEGIC>MOL_PROPERTY
W(PB)
SciTegic.value.DoubleValue
-60.125

@<SCITEGIC>MOL_PROPERTY
W(SA)
SciTegic.value.DoubleValue
1.862

@<SCITEGIC>MOL_PROPERTY
Valence
SciTegic.value.DoubleValue
3.797

@<SCITEGIC>MOL_PROPERTY
Coulomb
SciTegic.value.DoubleValue
45.253

@<SCITEGIC>MOL_PROPERTY
VdW
SciTegic.value.DoubleValue
0.384

@<SCITEGIC>MOL_PROPERTY
VdW6
SciTegic.value.DoubleValue
-5.596

@<SCITEGIC>MOL_PROPERTY
VdW12
SciTegic.value.DoubleValue
5.980

@<SCITEGIC>MOL_PROPERTY
Bond
SciTegic.value.DoubleValue
0.198

@<SCITEGIC>MOL_PROPERTY
Angle
SciTegic.value.DoubleValue
1.369

@<SCITEGIC>MOL_PROPERTY
Pdih
SciTegic.value.DoubleValue
2.230

@<SCITEGIC>MOL_PROPERTY
Idih
SciTegic.value.DoubleValue
0.000

@<SCITEGIC>MOL_PROPERTY
Tether
SciTegic.value.DoubleValue
0.000

@<TRIPOS>MOLECULE
guest-s11_confgen4.mol2 : confsearch ligand conformer 959
          20          19           1
SMALL
USER_CHARGES
 
@<TRIPOS>ATOM
       1    N1      18.500601   19.780692   21.457436 N.4        1 MOL1        -0.5919
       2    H1      18.269735   20.140438   20.525252 H          1 MOL1         0.3682
       3    H2      18.928070   18.858050   21.332026 H          1 MOL1         0.3682
       4    H3      17.613371   19.641238   21.951178 H          1 MOL1         0.3682
       5    C1      19.422444   20.719398   22.211486 C.3        1 MOL1         0.0252
       6    H4      18.898244   21.674285   22.305963 H          1 MOL1         0.0971
       7    H5      20.321854   20.884146   21.612219 H          1 MOL1         0.0971
       8    C2      19.813608   20.218714   23.616731 C.3        1 MOL1        -0.1369
       9    H6      20.103172   21.093574   24.213877 H          1 MOL1         0.0997
      10    H7      18.934067   19.793386   24.118042 H          1 MOL1         0.0997
      11    C3      20.991992   19.208846   23.654666 C.3        1 MOL1        -0.1329
      12    H8      21.196538   18.982766   24.710399 H          1 MOL1         0.0997
      13    H9      21.906178   19.685682   23.274719 H          1 MOL1         0.0997
      14    C4      20.744963   17.868531   22.916391 C.3        1 MOL1        -0.1305
      15    H10     21.241922   17.063791   23.476465 H          1 MOL1         0.0997
      16    H11     19.675967   17.616646   22.924328 H          1 MOL1         0.0997
      17    C5      21.305876   17.856631   21.474498 C.3        1 MOL1        -0.2320
      18    H12     20.912684   18.677025   20.864621 H          1 MOL1         0.1008
      19    H13     22.399697   17.950243   21.485180 H          1 MOL1         0.1008
      20    H14     21.060444   16.912138   20.971629 H          1 MOL1         0.1008
@<TRIPOS>BOND
    1     1     2    1
    2     1     3    1
    3     1     4    1
    4     1     5    1
    5     5     6    1
    6     5     7    1
    7     5     8    1
    8     8     9    1
    9     8    10    1
   10     8    11    1
   11    11    12    1
   12    11    13    1
   13    11    14    1
   14    14    15    1
   15    14    16    1
   16    14    17    1
   17    17    18    1
   18    17    19    1
   19    17    20    1
@<TRIPOS>SUBSTRUCTURE
       1 MOL1            1 RESIDUE      1      MOL     
@<SCITEGIC>MOL_PROPERTY
VConf Rank
SciTegic.value.IntegerValue
959

@<SCITEGIC>MOL_PROPERTY
Conf_Id
SciTegic.value.IntegerValue
77

@<SCITEGIC>MOL_PROPERTY
Delta U+W
SciTegic.value.DoubleValue
5.366

@<SCITEGIC>MOL_PROPERTY
U+W
SciTegic.value.DoubleValue
-6.412

@<SCITEGIC>MOL_PROPERTY
Grad RMS
SciTegic.value.DoubleValue
0.000000

@<SCITEGIC>MOL_PROPERTY
U
SciTegic.value.DoubleValue
51.542

@<SCITEGIC>MOL_PROPERTY
W
SciTegic.value.DoubleValue
-57.954

@<SCITEGIC>MOL_PROPERTY
W(PB)
SciTegic.value.DoubleValue
-59.811

@<SCITEGIC>MOL_PROPERTY
W(SA)
SciTegic.value.DoubleValue
1.857

@<SCITEGIC>MOL_PROPERTY
Valence
SciTegic.value.DoubleValue
5.347

@<SCITEGIC>MOL_PROPERTY
Coulomb
SciTegic.value.DoubleValue
45.870

@<SCITEGIC>MOL_PROPERTY
VdW
SciTegic.value.DoubleValue
0.325

@<SCITEGIC>MOL_PROPERTY
VdW6
SciTegic.value.DoubleValue
-6.161

@<SCITEGIC>MOL_PROPERTY
VdW12
SciTegic.value.DoubleValue
6.486

@<SCITEGIC>MOL_PROPERTY
Bond
SciTegic.value.DoubleValue
0.201

@<SCITEGIC>MOL_PROPERTY
Angle
SciTegic.value.DoubleValue
1.484

@<SCITEGIC>MOL_PROPERTY
Pdih
SciTegic.value.DoubleValue
3.662

@<SCITEGIC>MOL_PROPERTY
Idih
SciTegic.value.DoubleValue
0.000

@<SCITEGIC>MOL_PROPERTY
Tether
SciTegic.value.DoubleValue
0.000

@<TRIPOS>MOLECULE
guest-s11_confgen4.mol2 : confsearch ligand conformer 960
          20          19           1
SMALL
USER_CHARGES
 
@<TRIPOS>ATOM
       1    N1      19.215534   17.339609   22.682593 N.4        1 MOL1        -0.5919
       2    H1      19.437333   16.815878   23.535187 H          1 MOL1         0.3682
       3    H2      18.822954   18.240728   22.971716 H          1 MOL1         0.3682
       4    H3      18.472839   16.822794   22.199904 H          1 MOL1         0.3682
       5    C1      20.436597   17.525103   21.802731 C.3        1 MOL1         0.0252
       6    H4      20.131970   18.029240   20.881726 H          1 MOL1         0.0971
       7    H5      20.795585   16.526330   21.539862 H          1 MOL1         0.0971
       8    C2      21.580639   18.310165   22.475975 C.3        1 MOL1        -0.1369
       9    H6      21.698916   17.976683   23.515499 H          1 MOL1         0.0997
      10    H7      22.515460   18.039017   21.967644 H          1 MOL1         0.0997
      11    C3      21.443562   19.855524   22.421781 C.3        1 MOL1        -0.1329
      12    H8      21.461399   20.196643   21.377374 H          1 MOL1         0.0997
      13    H9      22.344749   20.281312   22.884483 H          1 MOL1         0.0997
      14    C4      20.207658   20.440893   23.151440 C.3        1 MOL1        -0.1305
      15    H10     19.913430   19.793865   23.988725 H          1 MOL1         0.0997
      16    H11     20.491673   21.400647   23.605827 H          1 MOL1         0.0997
      17    C5      19.010905   20.701596   22.206115 C.3        1 MOL1        -0.2320
      18    H12     18.142132   21.062213   22.772126 H          1 MOL1         0.1008
      19    H13     19.264755   21.471189   21.465434 H          1 MOL1         0.1008
      20    H14     18.707785   19.804441   21.655820 H          1 MOL1         0.1008
@<TRIPOS>BOND
    1     1     2    1
    2     1     3    1
    3     1     4    1
    4     1     5    1
    5     5     6    1
    6     5     7    1
    7     5     8    1
    8     8     9    1
    9     8    10    1
   10     8    11    1
   11    11    12    1
   12    11    13    1
   13    11    14    1
   14    14    15    1
   15    14    16    1
   16    14    17    1
   17    17    18    1
   18    17    19    1
   19    17    20    1
@<TRIPOS>SUBSTRUCTURE
       1 MOL1            1 RESIDUE      1      MOL     
@<SCITEGIC>MOL_PROPERTY
VConf Rank
SciTegic.value.IntegerValue
960

@<SCITEGIC>MOL_PROPERTY
Conf_Id
SciTegic.value.IntegerValue
67

@<SCITEGIC>MOL_PROPERTY
Delta U+W
SciTegic.value.DoubleValue
5.353

@<SCITEGIC>MOL_PROPERTY
U+W
SciTegic.value.DoubleValue
-6.425

@<SCITEGIC>MOL_PROPERTY
Grad RMS
SciTegic.value.DoubleValue
0.000000

@<SCITEGIC>MOL_PROPERTY
U
SciTegic.value.DoubleValue
51.541

@<SCITEGIC>MOL_PROPERTY
W
SciTegic.value.DoubleValue
-57.966

@<SCITEGIC>MOL_PROPERTY
W(PB)
SciTegic.value.DoubleValue
-59.821

@<SCITEGIC>MOL_PROPERTY
W(SA)
SciTegic.value.DoubleValue
1.855

@<SCITEGIC>MOL_PROPERTY
Valence
SciTegic.value.DoubleValue
5.347

@<SCITEGIC>MOL_PROPERTY
Coulomb
SciTegic.value.DoubleValue
45.870

@<SCITEGIC>MOL_PROPERTY
VdW
SciTegic.value.DoubleValue
0.325

@<SCITEGIC>MOL_PROPERTY
VdW6
SciTegic.value.DoubleValue
-6.161

@<SCITEGIC>MOL_PROPERTY
VdW12
SciTegic.value.DoubleValue
6.486

@<SCITEGIC>MOL_PROPERTY
Bond
SciTegic.value.DoubleValue
0.201

@<SCITEGIC>MOL_PROPERTY
Angle
SciTegic.value.DoubleValue
1.485

@<SCITEGIC>MOL_PROPERTY
Pdih
SciTegic.value.DoubleValue
3.662

@<SCITEGIC>MOL_PROPERTY
Idih
SciTegic.value.DoubleValue
0.000

@<SCITEGIC>MOL_PROPERTY
Tether
SciTegic.value.DoubleValue
0.000

@<TRIPOS>MOLECULE
guest-s11_confgen4.mol2 : confsearch ligand conformer 961
          20          19           1
SMALL
USER_CHARGES
 
@<TRIPOS>ATOM
       1    N1      22.277644   17.016621   23.629903 N.4        1 MOL1        -0.5919
       2    H1      22.431451   16.480244   22.770234 H          1 MOL1         0.3682
       3    H2      23.174692   17.046670   24.125890 H          1 MOL1         0.3682
       4    H3      21.633893   16.472758   24.213157 H          1 MOL1         0.3682
       5    C1      21.745903   18.406420   23.343200 C.3        1 MOL1         0.0252
       6    H4      22.492608   18.936973   22.746157 H          1 MOL1         0.0971
       7    H5      21.635048   18.928855   24.297290 H          1 MOL1         0.0971
       8    C2      20.398874   18.397006   22.598424 C.3        1 MOL1        -0.1369
       9    H6      20.510923   17.857614   21.648387 H          1 MOL1         0.0997
      10    H7      19.656301   17.849522   23.194170 H          1 MOL1         0.0997
      11    C3      19.892696   19.831000   22.326073 C.3        1 MOL1        -0.1329
      12    H8      20.640349   20.377494   21.734339 H          1 MOL1         0.0997
      13    H9      19.786666   20.369394   23.278271 H          1 MOL1         0.0997
      14    C4      18.540472   19.833896   21.578397 C.3        1 MOL1        -0.1305
      15    H10     18.642595   19.298049   20.624203 H          1 MOL1         0.0997
      16    H11     17.789005   19.290042   22.167947 H          1 MOL1         0.0997
      17    C5      18.038748   21.268595   21.308412 C.3        1 MOL1        -0.2320
      18    H12     18.754008   21.827604   20.691057 H          1 MOL1         0.1008
      19    H13     17.078297   21.249936   20.777160 H          1 MOL1         0.1008
      20    H14     17.893618   21.819495   22.246847 H          1 MOL1         0.1008
@<TRIPOS>BOND
    1     1     2    1
    2     1     3    1
    3     1     4    1
    4     1     5    1
    5     5     6    1
    6     5     7    1
    7     5     8    1
    8     8     9    1
    9     8    10    1
   10     8    11    1
   11    11    12    1
   12    11    13    1
   13    11    14    1
   14    14    15    1
   15    14    16    1
   16    14    17    1
   17    17    18    1
   18    17    19    1
   19    17    20    1
@<TRIPOS>SUBSTRUCTURE
       1 MOL1            1 RESIDUE      1      MOL     
@<SCITEGIC>MOL_PROPERTY
VConf Rank
SciTegic.value.IntegerValue
961

@<SCITEGIC>MOL_PROPERTY
Conf_Id
SciTegic.value.IntegerValue
72

@<SCITEGIC>MOL_PROPERTY
Delta U+W
SciTegic.value.DoubleValue
0.000

@<SCITEGIC>MOL_PROPERTY
U+W
SciTegic.value.DoubleValue
-11.778

@<SCITEGIC>MOL_PROPERTY
Grad RMS
SciTegic.value.DoubleValue
0.000000

@<SCITEGIC>MOL_PROPERTY
U
SciTegic.value.DoubleValue
45.772

@<SCITEGIC>MOL_PROPERTY
W
SciTegic.value.DoubleValue
-57.550

@<SCITEGIC>MOL_PROPERTY
W(PB)
SciTegic.value.DoubleValue
-59.511

@<SCITEGIC>MOL_PROPERTY
W(SA)
SciTegic.value.DoubleValue
1.961

@<SCITEGIC>MOL_PROPERTY
Valence
SciTegic.value.DoubleValue
1.299

@<SCITEGIC>MOL_PROPERTY
Coulomb
SciTegic.value.DoubleValue
44.177

@<SCITEGIC>MOL_PROPERTY
VdW
SciTegic.value.DoubleValue
0.297

@<SCITEGIC>MOL_PROPERTY
VdW6
SciTegic.value.DoubleValue
-3.490

@<SCITEGIC>MOL_PROPERTY
VdW12
SciTegic.value.DoubleValue
3.786

@<SCITEGIC>MOL_PROPERTY
Bond
SciTegic.value.DoubleValue
0.096

@<SCITEGIC>MOL_PROPERTY
Angle
SciTegic.value.DoubleValue
0.381

@<SCITEGIC>MOL_PROPERTY
Pdih
SciTegic.value.DoubleValue
0.822

@<SCITEGIC>MOL_PROPERTY
Idih
SciTegic.value.DoubleValue
0.000

@<SCITEGIC>MOL_PROPERTY
Tether
SciTegic.value.DoubleValue
0.000

@<TRIPOS>MOLECULE
guest-s11_confgen4.mol2 : confsearch ligand conformer 962
          20          19           1
SMALL
USER_CHARGES
 
@<TRIPOS>ATOM
       1    N1      22.707060   17.912160   23.274312 N.4        1 MOL1        -0.5919
       2    H1      22.381908   17.789281   24.238425 H          1 MOL1         0.3682
       3    H2      22.573835   17.016201   22.794863 H          1 MOL1         0.3682
       4    H3      23.718133   18.077048   23.320407 H          1 MOL1         0.3682
       5    C1      21.983589   19.043549   22.572084 C.3        1 MOL1         0.0252
       6    H4      22.400050   19.136905   21.565436 H          1 MOL1         0.0971
       7    H5      22.192955   19.967964   23.117179 H          1 MOL1         0.0971
       8    C2      20.462105   18.827287   22.484992 C.3        1 MOL1        -0.1369
       9    H6      20.256840   17.890043   21.950903 H          1 MOL1         0.0997
      10    H7      20.057857   18.717274   23.499165 H          1 MOL1         0.0997
      11    C3      19.765984   20.003165   21.759833 C.3        1 MOL1        -0.1329
      12    H8      20.236208   20.145958   20.776858 H          1 MOL1         0.0997
      13    H9      19.932703   20.934021   22.319563 H          1 MOL1         0.0997
      14    C4      18.246850   19.788899   21.552491 C.3        1 MOL1        -0.1305
      15    H10     17.854248   20.614702   20.942693 H          1 MOL1         0.0997
      16    H11     18.076477   18.871207   20.972240 H          1 MOL1         0.0997
      17    C5      17.448995   19.723377   22.874862 C.3        1 MOL1        -0.2320
      18    H12     17.624352   20.617584   23.486955 H          1 MOL1         0.1008
      19    H13     16.372087   19.662727   22.671043 H          1 MOL1         0.1008
      20    H14     17.721793   18.841545   23.467632 H          1 MOL1         0.1008
@<TRIPOS>BOND
    1     1     2    1
    2     1     3    1
    3     1     4    1
    4     1     5    1
    5     5     6    1
    6     5     7    1
    7     5     8    1
    8     8     9    1
    9     8    10    1
   10     8    11    1
   11    11    12    1
   12    11    13    1
   13    11    14    1
   14    14    15    1
   15    14    16    1
   16    14    17    1
   17    17    18    1
   18    17    19    1
   19    17    20    1
@<TRIPOS>SUBSTRUCTURE
       1 MOL1            1 RESIDUE      1      MOL     
@<SCITEGIC>MOL_PROPERTY
VConf Rank
SciTegic.value.IntegerValue
962

@<SCITEGIC>MOL_PROPERTY
Conf_Id
SciTegic.value.IntegerValue
42

@<SCITEGIC>MOL_PROPERTY
Delta U+W
SciTegic.value.DoubleValue
0.508

@<SCITEGIC>MOL_PROPERTY
U+W
SciTegic.value.DoubleValue
-11.270

@<SCITEGIC>MOL_PROPERTY
Grad RMS
SciTegic.value.DoubleValue
0.000000

@<SCITEGIC>MOL_PROPERTY
U
SciTegic.value.DoubleValue
46.486

@<SCITEGIC>MOL_PROPERTY
W
SciTegic.value.DoubleValue
-57.756

@<SCITEGIC>MOL_PROPERTY
W(PB)
SciTegic.value.DoubleValue
-59.705

@<SCITEGIC>MOL_PROPERTY
W(SA)
SciTegic.value.DoubleValue
1.949

@<SCITEGIC>MOL_PROPERTY
Valence
SciTegic.value.DoubleValue
1.806

@<SCITEGIC>MOL_PROPERTY
Coulomb
SciTegic.value.DoubleValue
44.248

@<SCITEGIC>MOL_PROPERTY
VdW
SciTegic.value.DoubleValue
0.433

@<SCITEGIC>MOL_PROPERTY
VdW6
SciTegic.value.DoubleValue
-4.089

@<SCITEGIC>MOL_PROPERTY
VdW12
SciTegic.value.DoubleValue
4.522

@<SCITEGIC>MOL_PROPERTY
Bond
SciTegic.value.DoubleValue
0.131

@<SCITEGIC>MOL_PROPERTY
Angle
SciTegic.value.DoubleValue
0.628

@<SCITEGIC>MOL_PROPERTY
Pdih
SciTegic.value.DoubleValue
1.047

@<SCITEGIC>MOL_PROPERTY
Idih
SciTegic.value.DoubleValue
0.000

@<SCITEGIC>MOL_PROPERTY
Tether
SciTegic.value.DoubleValue
0.000

@<TRIPOS>MOLECULE
guest-s11_confgen4.mol2 : confsearch ligand conformer 963
          20          19           1
SMALL
USER_CHARGES
 
@<TRIPOS>ATOM
       1    N1      19.448228   21.971004   22.309544 N.4        1 MOL1        -0.5919
       2    H1      18.671597   21.961653   22.978215 H          1 MOL1         0.3682
       3    H2      20.291350   22.231756   22.830589 H          1 MOL1         0.3682
       4    H3      19.261065   22.731314   21.647367 H          1 MOL1         0.3682
       5    C1      19.606281   20.638016   21.606163 C.3        1 MOL1         0.0252
       6    H4      20.428077   20.729165   20.890725 H          1 MOL1         0.0971
       7    H5      18.686680   20.439449   21.049028 H          1 MOL1         0.0971
       8    C2      19.888005   19.473443   22.572430 C.3        1 MOL1        -0.1369
       9    H6      20.802437   19.691528   23.138399 H          1 MOL1         0.0997
      10    H7      19.068154   19.395624   23.298791 H          1 MOL1         0.0997
      11    C3      20.039581   18.134411   21.812724 C.3        1 MOL1        -0.1329
      12    H8      20.889284   18.196726   21.118672 H          1 MOL1         0.0997
      13    H9      19.146628   17.971561   21.193161 H          1 MOL1         0.0997
      14    C4      20.221511   16.912092   22.745197 C.3        1 MOL1        -0.1305
      15    H10     19.361959   16.831996   23.425367 H          1 MOL1         0.0997
      16    H11     20.215395   15.998497   22.134259 H          1 MOL1         0.0997
      17    C5      21.531165   16.953897   23.565314 C.3        1 MOL1        -0.2320
      18    H12     21.532823   17.785160   24.281151 H          1 MOL1         0.1008
      19    H13     21.655310   16.025848   24.138259 H          1 MOL1         0.1008
      20    H14     22.404811   17.062275   22.909562 H          1 MOL1         0.1008
@<TRIPOS>BOND
    1     1     2    1
    2     1     3    1
    3     1     4    1
    4     1     5    1
    5     5     6    1
    6     5     7    1
    7     5     8    1
    8     8     9    1
    9     8    10    1
   10     8    11    1
   11    11    12    1
   12    11    13    1
   13    11    14    1
   14    14    15    1
   15    14    16    1
   16    14    17    1
   17    17    18    1
   18    17    19    1
   19    17    20    1
@<TRIPOS>SUBSTRUCTURE
       1 MOL1            1 RESIDUE      1      MOL     
@<SCITEGIC>MOL_PROPERTY
VConf Rank
SciTegic.value.IntegerValue
963

@<SCITEGIC>MOL_PROPERTY
Conf_Id
SciTegic.value.IntegerValue
41

@<SCITEGIC>MOL_PROPERTY
Delta U+W
SciTegic.value.DoubleValue
0.515

@<SCITEGIC>MOL_PROPERTY
U+W
SciTegic.value.DoubleValue
-11.263

@<SCITEGIC>MOL_PROPERTY
Grad RMS
SciTegic.value.DoubleValue
0.000000

@<SCITEGIC>MOL_PROPERTY
U
SciTegic.value.DoubleValue
46.486

@<SCITEGIC>MOL_PROPERTY
W
SciTegic.value.DoubleValue
-57.749

@<SCITEGIC>MOL_PROPERTY
W(PB)
SciTegic.value.DoubleValue
-59.685

@<SCITEGIC>MOL_PROPERTY
W(SA)
SciTegic.value.DoubleValue
1.936

@<SCITEGIC>MOL_PROPERTY
Valence
SciTegic.value.DoubleValue
1.806

@<SCITEGIC>MOL_PROPERTY
Coulomb
SciTegic.value.DoubleValue
44.248

@<SCITEGIC>MOL_PROPERTY
VdW
SciTegic.value.DoubleValue
0.433

@<SCITEGIC>MOL_PROPERTY
VdW6
SciTegic.value.DoubleValue
-4.089

@<SCITEGIC>MOL_PROPERTY
VdW12
SciTegic.value.DoubleValue
4.522

@<SCITEGIC>MOL_PROPERTY
Bond
SciTegic.value.DoubleValue
0.131

@<SCITEGIC>MOL_PROPERTY
Angle
SciTegic.value.DoubleValue
0.628

@<SCITEGIC>MOL_PROPERTY
Pdih
SciTegic.value.DoubleValue
1.047

@<SCITEGIC>MOL_PROPERTY
Idih
SciTegic.value.DoubleValue
0.000

@<SCITEGIC>MOL_PROPERTY
Tether
SciTegic.value.DoubleValue
0.000

@<TRIPOS>MOLECULE
guest-s11_confgen4.mol2 : confsearch ligand conformer 964
          20          19           1
SMALL
USER_CHARGES
 
@<TRIPOS>ATOM
       1    N1      22.373912   18.924145   24.091392 N.4        1 MOL1        -0.5919
       2    H1      23.095831   19.340301   24.689011 H          1 MOL1         0.3682
       3    H2      21.617084   18.616023   24.708815 H          1 MOL1         0.3682
       4    H3      22.783253   18.083807   23.671314 H          1 MOL1         0.3682
       5    C1      21.883226   19.900001   23.039205 C.3        1 MOL1         0.0252
       6    H4      22.749599   20.215181   22.451277 H          1 MOL1         0.0971
       7    H5      21.482262   20.778938   23.551201 H          1 MOL1         0.0971
       8    C2      20.813047   19.315979   22.096070 C.3        1 MOL1        -0.1369
       9    H6      20.616164   20.054605   21.309128 H          1 MOL1         0.0997
      10    H7      21.212575   18.423476   21.596566 H          1 MOL1         0.0997
      11    C3      19.493440   18.968644   22.830313 C.3        1 MOL1        -0.1329
      12    H8      19.087773   19.871035   23.308425 H          1 MOL1         0.0997
      13    H9      19.702120   18.257211   23.640204 H          1 MOL1         0.0997
      14    C4      18.418872   18.346266   21.905688 C.3        1 MOL1        -0.1305
      15    H10     18.815200   17.435417   21.435431 H          1 MOL1         0.0997
      16    H11     17.566445   18.027194   22.521726 H          1 MOL1         0.0997
      17    C5      17.907918   19.314939   20.814651 C.3        1 MOL1        -0.2320
      18    H12     18.697248   19.566653   20.095716 H          1 MOL1         0.1008
      19    H13     17.083736   18.858355   20.251444 H          1 MOL1         0.1008
      20    H14     17.534823   20.247580   21.257353 H          1 MOL1         0.1008
@<TRIPOS>BOND
    1     1     2    1
    2     1     3    1
    3     1     4    1
    4     1     5    1
    5     5     6    1
    6     5     7    1
    7     5     8    1
    8     8     9    1
    9     8    10    1
   10     8    11    1
   11    11    12    1
   12    11    13    1
   13    11    14    1
   14    14    15    1
   15    14    16    1
   16    14    17    1
   17    17    18    1
   18    17    19    1
   19    17    20    1
@<TRIPOS>SUBSTRUCTURE
       1 MOL1            1 RESIDUE      1      MOL     
@<SCITEGIC>MOL_PROPERTY
VConf Rank
SciTegic.value.IntegerValue
964

@<SCITEGIC>MOL_PROPERTY
Conf_Id
SciTegic.value.IntegerValue
33

@<SCITEGIC>MOL_PROPERTY
Delta U+W
SciTegic.value.DoubleValue
0.703

@<SCITEGIC>MOL_PROPERTY
U+W
SciTegic.value.DoubleValue
-11.075

@<SCITEGIC>MOL_PROPERTY
Grad RMS
SciTegic.value.DoubleValue
0.000000

@<SCITEGIC>MOL_PROPERTY
U
SciTegic.value.DoubleValue
47.080

@<SCITEGIC>MOL_PROPERTY
W
SciTegic.value.DoubleValue
-58.154

@<SCITEGIC>MOL_PROPERTY
W(PB)
SciTegic.value.DoubleValue
-60.053

@<SCITEGIC>MOL_PROPERTY
W(SA)
SciTegic.value.DoubleValue
1.899

@<SCITEGIC>MOL_PROPERTY
Valence
SciTegic.value.DoubleValue
1.943

@<SCITEGIC>MOL_PROPERTY
Coulomb
SciTegic.value.DoubleValue
44.572

@<SCITEGIC>MOL_PROPERTY
VdW
SciTegic.value.DoubleValue
0.565

@<SCITEGIC>MOL_PROPERTY
VdW6
SciTegic.value.DoubleValue
-4.575

@<SCITEGIC>MOL_PROPERTY
VdW12
SciTegic.value.DoubleValue
5.139

@<SCITEGIC>MOL_PROPERTY
Bond
SciTegic.value.DoubleValue
0.158

@<SCITEGIC>MOL_PROPERTY
Angle
SciTegic.value.DoubleValue
0.700

@<SCITEGIC>MOL_PROPERTY
Pdih
SciTegic.value.DoubleValue
1.085

@<SCITEGIC>MOL_PROPERTY
Idih
SciTegic.value.DoubleValue
0.000

@<SCITEGIC>MOL_PROPERTY
Tether
SciTegic.value.DoubleValue
0.000

@<TRIPOS>MOLECULE
guest-s11_confgen4.mol2 : confsearch ligand conformer 965
          20          19           1
SMALL
USER_CHARGES
 
@<TRIPOS>ATOM
       1    N1      19.852604   18.028907   24.985827 N.4        1 MOL1        -0.5919
       2    H1      19.392249   17.392330   25.644874 H          1 MOL1         0.3682
       3    H2      20.820255   18.138884   25.304809 H          1 MOL1         0.3682
       4    H3      19.396113   18.940482   25.083740 H          1 MOL1         0.3682
       5    C1      19.782536   17.511645   23.561857 C.3        1 MOL1         0.0252
       6    H4      18.728949   17.395463   23.293719 H          1 MOL1         0.0971
       7    H5      20.248046   16.522371   23.546424 H          1 MOL1         0.0971
       8    C2      20.482704   18.419973   22.532019 C.3        1 MOL1        -0.1369
       9    H6      21.536186   18.548879   22.813535 H          1 MOL1         0.0997
      10    H7      20.477211   17.901919   21.564963 H          1 MOL1         0.0997
      11    C3      19.797306   19.802375   22.389500 C.3        1 MOL1        -0.1329
      12    H8      19.773005   20.300866   23.367521 H          1 MOL1         0.0997
      13    H9      18.750068   19.666292   22.085787 H          1 MOL1         0.0997
      14    C4      20.508407   20.742494   21.385764 C.3        1 MOL1        -0.1305
      15    H10     20.030511   21.731216   21.430317 H          1 MOL1         0.0997
      16    H11     21.552920   20.892762   21.692811 H          1 MOL1         0.0997
      17    C5      20.463084   20.234477   19.926439 C.3        1 MOL1        -0.2320
      18    H12     19.430393   20.046229   19.605320 H          1 MOL1         0.1008
      19    H13     20.894452   20.980688   19.246705 H          1 MOL1         0.1008
      20    H14     21.036454   19.307487   19.803121 H          1 MOL1         0.1008
@<TRIPOS>BOND
    1     1     2    1
    2     1     3    1
    3     1     4    1
    4     1     5    1
    5     5     6    1
    6     5     7    1
    7     5     8    1
    8     8     9    1
    9     8    10    1
   10     8    11    1
   11    11    12    1
   12    11    13    1
   13    11    14    1
   14    14    15    1
   15    14    16    1
   16    14    17    1
   17    17    18    1
   18    17    19    1
   19    17    20    1
@<TRIPOS>SUBSTRUCTURE
       1 MOL1            1 RESIDUE      1      MOL     
@<SCITEGIC>MOL_PROPERTY
VConf Rank
SciTegic.value.IntegerValue
965

@<SCITEGIC>MOL_PROPERTY
Conf_Id
SciTegic.value.IntegerValue
24

@<SCITEGIC>MOL_PROPERTY
Delta U+W
SciTegic.value.DoubleValue
0.847

@<SCITEGIC>MOL_PROPERTY
U+W
SciTegic.value.DoubleValue
-10.931

@<SCITEGIC>MOL_PROPERTY
Grad RMS
SciTegic.value.DoubleValue
0.000000

@<SCITEGIC>MOL_PROPERTY
U
SciTegic.value.DoubleValue
47.080

@<SCITEGIC>MOL_PROPERTY
W
SciTegic.value.DoubleValue
-58.011

@<SCITEGIC>MOL_PROPERTY
W(PB)
SciTegic.value.DoubleValue
-59.914

@<SCITEGIC>MOL_PROPERTY
W(SA)
SciTegic.value.DoubleValue
1.903

@<SCITEGIC>MOL_PROPERTY
Valence
SciTegic.value.DoubleValue
1.943

@<SCITEGIC>MOL_PROPERTY
Coulomb
SciTegic.value.DoubleValue
44.572

@<SCITEGIC>MOL_PROPERTY
VdW
SciTegic.value.DoubleValue
0.565

@<SCITEGIC>MOL_PROPERTY
VdW6
SciTegic.value.DoubleValue
-4.575

@<SCITEGIC>MOL_PROPERTY
VdW12
SciTegic.value.DoubleValue
5.140

@<SCITEGIC>MOL_PROPERTY
Bond
SciTegic.value.DoubleValue
0.158

@<SCITEGIC>MOL_PROPERTY
Angle
SciTegic.value.DoubleValue
0.700

@<SCITEGIC>MOL_PROPERTY
Pdih
SciTegic.value.DoubleValue
1.085

@<SCITEGIC>MOL_PROPERTY
Idih
SciTegic.value.DoubleValue
0.000

@<SCITEGIC>MOL_PROPERTY
Tether
SciTegic.value.DoubleValue
0.000

@<TRIPOS>MOLECULE
guest-s11_confgen4.mol2 : confsearch ligand conformer 966
          20          19           1
SMALL
USER_CHARGES
 
@<TRIPOS>ATOM
       1    N1      22.756808   18.401470   22.575502 N.4        1 MOL1        -0.5919
       2    H1      23.366900   18.194547   21.777718 H          1 MOL1         0.3682
       3    H2      23.051566   19.309738   22.947508 H          1 MOL1         0.3682
       4    H3      22.960871   17.700694   23.294933 H          1 MOL1         0.3682
       5    C1      21.293643   18.398525   22.181210 C.3        1 MOL1         0.0252
       6    H4      21.056839   17.414357   21.768033 H          1 MOL1         0.0971
       7    H5      21.156583   19.144250   21.393749 H          1 MOL1         0.0971
       8    C2      20.349013   18.707007   23.358128 C.3        1 MOL1        -0.1369
       9    H6      20.524191   17.977360   24.159807 H          1 MOL1         0.0997
      10    H7      20.591849   19.690854   23.779472 H          1 MOL1         0.0997
      11    C3      18.853842   18.657315   22.955647 C.3        1 MOL1        -0.1329
      12    H8      18.239380   18.873751   23.840438 H          1 MOL1         0.0997
      13    H9      18.599452   17.631446   22.655030 H          1 MOL1         0.0997
      14    C4      18.454969   19.625375   21.812413 C.3        1 MOL1        -0.1305
      15    H10     18.982294   19.357399   20.886727 H          1 MOL1         0.0997
      16    H11     17.385149   19.492709   21.598482 H          1 MOL1         0.0997
      17    C5      18.714966   21.111790   22.147048 C.3        1 MOL1        -0.2320
      18    H12     18.331165   21.758671   21.347583 H          1 MOL1         0.1008
      19    H13     18.214733   21.399727   23.080769 H          1 MOL1         0.1008
      20    H14     19.787070   21.319307   22.252715 H          1 MOL1         0.1008
@<TRIPOS>BOND
    1     1     2    1
    2     1     3    1
    3     1     4    1
    4     1     5    1
    5     5     6    1
    6     5     7    1
    7     5     8    1
    8     8     9    1
    9     8    10    1
   10     8    11    1
   11    11    12    1
   12    11    13    1
   13    11    14    1
   14    14    15    1
   15    14    16    1
   16    14    17    1
   17    17    18    1
   18    17    19    1
   19    17    20    1
@<TRIPOS>SUBSTRUCTURE
       1 MOL1            1 RESIDUE      1      MOL     
@<SCITEGIC>MOL_PROPERTY
VConf Rank
SciTegic.value.IntegerValue
966

@<SCITEGIC>MOL_PROPERTY
Conf_Id
SciTegic.value.IntegerValue
64

@<SCITEGIC>MOL_PROPERTY
Delta U+W
SciTegic.value.DoubleValue
0.707

@<SCITEGIC>MOL_PROPERTY
U+W
SciTegic.value.DoubleValue
-11.070

@<SCITEGIC>MOL_PROPERTY
Grad RMS
SciTegic.value.DoubleValue
0.000000

@<SCITEGIC>MOL_PROPERTY
U
SciTegic.value.DoubleValue
47.077

@<SCITEGIC>MOL_PROPERTY
W
SciTegic.value.DoubleValue
-58.148

@<SCITEGIC>MOL_PROPERTY
W(PB)
SciTegic.value.DoubleValue
-60.054

@<SCITEGIC>MOL_PROPERTY
W(SA)
SciTegic.value.DoubleValue
1.906

@<SCITEGIC>MOL_PROPERTY
Valence
SciTegic.value.DoubleValue
2.039

@<SCITEGIC>MOL_PROPERTY
Coulomb
SciTegic.value.DoubleValue
44.655

@<SCITEGIC>MOL_PROPERTY
VdW
SciTegic.value.DoubleValue
0.383

@<SCITEGIC>MOL_PROPERTY
VdW6
SciTegic.value.DoubleValue
-4.912

@<SCITEGIC>MOL_PROPERTY
VdW12
SciTegic.value.DoubleValue
5.295

@<SCITEGIC>MOL_PROPERTY
Bond
SciTegic.value.DoubleValue
0.159

@<SCITEGIC>MOL_PROPERTY
Angle
SciTegic.value.DoubleValue
0.856

@<SCITEGIC>MOL_PROPERTY
Pdih
SciTegic.value.DoubleValue
1.024

@<SCITEGIC>MOL_PROPERTY
Idih
SciTegic.value.DoubleValue
0.000

@<SCITEGIC>MOL_PROPERTY
Tether
SciTegic.value.DoubleValue
0.000

@<TRIPOS>MOLECULE
guest-s11_confgen4.mol2 : confsearch ligand conformer 967
          20          19           1
SMALL
USER_CHARGES
 
@<TRIPOS>ATOM
       1    N1      21.808661   17.105855   23.551235 N.4        1 MOL1        -0.5919
       2    H1      22.384439   17.413368   24.341314 H          1 MOL1         0.3682
       3    H2      20.998290   16.615162   23.942056 H          1 MOL1         0.3682
       4    H3      22.358112   16.409760   23.036411 H          1 MOL1         0.3682
       5    C1      21.396547   18.264792   22.666162 C.3        1 MOL1         0.0252
       6    H4      20.814836   17.860994   21.833369 H          1 MOL1         0.0971
       7    H5      22.304280   18.721267   22.262392 H          1 MOL1         0.0971
       8    C2      20.568167   19.329451   23.409741 C.3        1 MOL1        -0.1369
       9    H6      19.661207   18.870287   23.823319 H          1 MOL1         0.0997
      10    H7      21.145119   19.698163   24.268191 H          1 MOL1         0.0997
      11    C3      20.189920   20.531671   22.508856 C.3        1 MOL1        -0.1329
      12    H8      21.108459   21.053662   22.206691 H          1 MOL1         0.0997
      13    H9      19.613469   21.254355   23.102737 H          1 MOL1         0.0997
      14    C4      19.384030   20.163641   21.236724 C.3        1 MOL1        -0.1305
      15    H10     19.188576   21.083379   20.667723 H          1 MOL1         0.0997
      16    H11     19.986687   19.524336   20.577278 H          1 MOL1         0.0997
      17    C5      18.036212   19.471374   21.541950 C.3        1 MOL1        -0.2320
      18    H12     17.422668   20.081871   22.217104 H          1 MOL1         0.1008
      19    H13     17.465226   19.316996   20.617262 H          1 MOL1         0.1008
      20    H14     18.184311   18.488246   22.005805 H          1 MOL1         0.1008
@<TRIPOS>BOND
    1     1     2    1
    2     1     3    1
    3     1     4    1
    4     1     5    1
    5     5     6    1
    6     5     7    1
    7     5     8    1
    8     8     9    1
    9     8    10    1
   10     8    11    1
   11    11    12    1
   12    11    13    1
   13    11    14    1
   14    14    15    1
   15    14    16    1
   16    14    17    1
   17    17    18    1
   18    17    19    1
   19    17    20    1
@<TRIPOS>SUBSTRUCTURE
       1 MOL1            1 RESIDUE      1      MOL     
@<SCITEGIC>MOL_PROPERTY
VConf Rank
SciTegic.value.IntegerValue
967

@<SCITEGIC>MOL_PROPERTY
Conf_Id
SciTegic.value.IntegerValue
22

@<SCITEGIC>MOL_PROPERTY
Delta U+W
SciTegic.value.DoubleValue
0.731

@<SCITEGIC>MOL_PROPERTY
U+W
SciTegic.value.DoubleValue
-11.047

@<SCITEGIC>MOL_PROPERTY
Grad RMS
SciTegic.value.DoubleValue
0.000000

@<SCITEGIC>MOL_PROPERTY
U
SciTegic.value.DoubleValue
47.078

@<SCITEGIC>MOL_PROPERTY
W
SciTegic.value.DoubleValue
-58.125

@<SCITEGIC>MOL_PROPERTY
W(PB)
SciTegic.value.DoubleValue
-60.031

@<SCITEGIC>MOL_PROPERTY
W(SA)
SciTegic.value.DoubleValue
1.906

@<SCITEGIC>MOL_PROPERTY
Valence
SciTegic.value.DoubleValue
2.039

@<SCITEGIC>MOL_PROPERTY
Coulomb
SciTegic.value.DoubleValue
44.655

@<SCITEGIC>MOL_PROPERTY
VdW
SciTegic.value.DoubleValue
0.383

@<SCITEGIC>MOL_PROPERTY
VdW6
SciTegic.value.DoubleValue
-4.913

@<SCITEGIC>MOL_PROPERTY
VdW12
SciTegic.value.DoubleValue
5.296

@<SCITEGIC>MOL_PROPERTY
Bond
SciTegic.value.DoubleValue
0.159

@<SCITEGIC>MOL_PROPERTY
Angle
SciTegic.value.DoubleValue
0.856

@<SCITEGIC>MOL_PROPERTY
Pdih
SciTegic.value.DoubleValue
1.024

@<SCITEGIC>MOL_PROPERTY
Idih
SciTegic.value.DoubleValue
0.000

@<SCITEGIC>MOL_PROPERTY
Tether
SciTegic.value.DoubleValue
0.000

@<TRIPOS>MOLECULE
guest-s11_confgen4.mol2 : confsearch ligand conformer 968
          20          19           1
SMALL
USER_CHARGES
 
@<TRIPOS>ATOM
       1    N1      20.915145   21.315676   24.093812 N.4        1 MOL1        -0.5919
       2    H1      21.724893   21.688526   23.588219 H          1 MOL1         0.3682
       3    H2      20.211246   22.059873   24.125555 H          1 MOL1         0.3682
       4    H3      21.217496   21.151414   25.059780 H          1 MOL1         0.3682
       5    C1      20.376911   20.054008   23.449523 C.3        1 MOL1         0.0252
       6    H4      19.537153   19.697953   24.052372 H          1 MOL1         0.0971
       7    H5      21.169359   19.302723   23.478907 H          1 MOL1         0.0971
       8    C2      19.919293   20.266124   21.995472 C.3        1 MOL1        -0.1369
       9    H6      19.211589   21.105330   21.966974 H          1 MOL1         0.0997
      10    H7      20.779242   20.564988   21.381506 H          1 MOL1         0.0997
      11    C3      19.235635   19.026454   21.364805 C.3        1 MOL1        -0.1329
      12    H8      18.872487   19.320520   20.370220 H          1 MOL1         0.0997
      13    H9      18.339282   18.754802   21.939354 H          1 MOL1         0.0997
      14    C4      20.155962   17.790164   21.192248 C.3        1 MOL1        -0.1305
      15    H10     19.789316   17.204119   20.337716 H          1 MOL1         0.0997
      16    H11     21.174041   18.106855   20.925860 H          1 MOL1         0.0997
      17    C5      20.189847   16.856766   22.425315 C.3        1 MOL1        -0.2320
      18    H12     20.630949   17.341960   23.302179 H          1 MOL1         0.1008
      19    H13     19.179464   16.521748   22.693444 H          1 MOL1         0.1008
      20    H14     20.789299   15.962613   22.210531 H          1 MOL1         0.1008
@<TRIPOS>BOND
    1     1     2    1
    2     1     3    1
    3     1     4    1
    4     1     5    1
    5     5     6    1
    6     5     7    1
    7     5     8    1
    8     8     9    1
    9     8    10    1
   10     8    11    1
   11    11    12    1
   12    11    13    1
   13    11    14    1
   14    14    15    1
   15    14    16    1
   16    14    17    1
   17    17    18    1
   18    17    19    1
   19    17    20    1
@<TRIPOS>SUBSTRUCTURE
       1 MOL1            1 RESIDUE      1      MOL     
@<SCITEGIC>MOL_PROPERTY
VConf Rank
SciTegic.value.IntegerValue
968

@<SCITEGIC>MOL_PROPERTY
Conf_Id
SciTegic.value.IntegerValue
61

@<SCITEGIC>MOL_PROPERTY
Delta U+W
SciTegic.value.DoubleValue
2.669

@<SCITEGIC>MOL_PROPERTY
U+W
SciTegic.value.DoubleValue
-9.108

@<SCITEGIC>MOL_PROPERTY
Grad RMS
SciTegic.value.DoubleValue
0.000000

@<SCITEGIC>MOL_PROPERTY
U
SciTegic.value.DoubleValue
48.916

@<SCITEGIC>MOL_PROPERTY
W
SciTegic.value.DoubleValue
-58.025

@<SCITEGIC>MOL_PROPERTY
W(PB)
SciTegic.value.DoubleValue
-59.935

@<SCITEGIC>MOL_PROPERTY
W(SA)
SciTegic.value.DoubleValue
1.911

@<SCITEGIC>MOL_PROPERTY
Valence
SciTegic.value.DoubleValue
3.785

@<SCITEGIC>MOL_PROPERTY
Coulomb
SciTegic.value.DoubleValue
44.716

@<SCITEGIC>MOL_PROPERTY
VdW
SciTegic.value.DoubleValue
0.415

@<SCITEGIC>MOL_PROPERTY
VdW6
SciTegic.value.DoubleValue
-4.836

@<SCITEGIC>MOL_PROPERTY
VdW12
SciTegic.value.DoubleValue
5.251

@<SCITEGIC>MOL_PROPERTY
Bond
SciTegic.value.DoubleValue
0.175

@<SCITEGIC>MOL_PROPERTY
Angle
SciTegic.value.DoubleValue
1.195

@<SCITEGIC>MOL_PROPERTY
Pdih
SciTegic.value.DoubleValue
2.415

@<SCITEGIC>MOL_PROPERTY
Idih
SciTegic.value.DoubleValue
0.000

@<SCITEGIC>MOL_PROPERTY
Tether
SciTegic.value.DoubleValue
0.000

@<TRIPOS>MOLECULE
guest-s11_confgen4.mol2 : confsearch ligand conformer 969
          20          19           1
SMALL
USER_CHARGES
 
@<TRIPOS>ATOM
       1    N1      19.123413   18.689722   20.396764 N.4        1 MOL1        -0.5919
       2    H1      19.027603   18.037653   19.611100 H          1 MOL1         0.3682
       3    H2      18.612224   19.540134   20.140273 H          1 MOL1         0.3682
       4    H3      20.113504   18.940083   20.460502 H          1 MOL1         0.3682
       5    C1      18.605456   18.090592   21.690339 C.3        1 MOL1         0.0252
       6    H4      19.144515   17.159277   21.883740 H          1 MOL1         0.0971
       7    H5      17.552761   17.843937   21.527380 H          1 MOL1         0.0971
       8    C2      18.717266   19.024487   22.913782 C.3        1 MOL1        -0.1369
       9    H6      18.421917   20.045152   22.636606 H          1 MOL1         0.0997
      10    H7      17.981379   18.690007   23.657061 H          1 MOL1         0.0997
      11    C3      20.110057   19.030940   23.594854 C.3        1 MOL1        -0.1329
      12    H8      20.364318   18.011901   23.917930 H          1 MOL1         0.0997
      13    H9      20.039345   19.632933   24.511416 H          1 MOL1         0.0997
      14    C4      21.251513   19.593004   22.715380 C.3        1 MOL1        -0.1305
      15    H10     21.440260   18.920574   21.869175 H          1 MOL1         0.0997
      16    H11     20.958522   20.567690   22.300548 H          1 MOL1         0.0997
      17    C5      22.560831   19.752935   23.517332 C.3        1 MOL1        -0.2320
      18    H12     23.362597   20.143235   22.877107 H          1 MOL1         0.1008
      19    H13     22.429502   20.451113   24.354304 H          1 MOL1         0.1008
      20    H14     22.894313   18.789659   23.924959 H          1 MOL1         0.1008
@<TRIPOS>BOND
    1     1     2    1
    2     1     3    1
    3     1     4    1
    4     1     5    1
    5     5     6    1
    6     5     7    1
    7     5     8    1
    8     8     9    1
    9     8    10    1
   10     8    11    1
   11    11    12    1
   12    11    13    1
   13    11    14    1
   14    14    15    1
   15    14    16    1
   16    14    17    1
   17    17    18    1
   18    17    19    1
   19    17    20    1
@<TRIPOS>SUBSTRUCTURE
       1 MOL1            1 RESIDUE      1      MOL     
@<SCITEGIC>MOL_PROPERTY
VConf Rank
SciTegic.value.IntegerValue
969

@<SCITEGIC>MOL_PROPERTY
Conf_Id
SciTegic.value.IntegerValue
69

@<SCITEGIC>MOL_PROPERTY
Delta U+W
SciTegic.value.DoubleValue
2.811

@<SCITEGIC>MOL_PROPERTY
U+W
SciTegic.value.DoubleValue
-8.967

@<SCITEGIC>MOL_PROPERTY
Grad RMS
SciTegic.value.DoubleValue
0.000000

@<SCITEGIC>MOL_PROPERTY
U
SciTegic.value.DoubleValue
49.216

@<SCITEGIC>MOL_PROPERTY
W
SciTegic.value.DoubleValue
-58.183

@<SCITEGIC>MOL_PROPERTY
W(PB)
SciTegic.value.DoubleValue
-60.064

@<SCITEGIC>MOL_PROPERTY
W(SA)
SciTegic.value.DoubleValue
1.881

@<SCITEGIC>MOL_PROPERTY
Valence
SciTegic.value.DoubleValue
2.929

@<SCITEGIC>MOL_PROPERTY
Coulomb
SciTegic.value.DoubleValue
46.006

@<SCITEGIC>MOL_PROPERTY
VdW
SciTegic.value.DoubleValue
0.281

@<SCITEGIC>MOL_PROPERTY
VdW6
SciTegic.value.DoubleValue
-4.909

@<SCITEGIC>MOL_PROPERTY
VdW12
SciTegic.value.DoubleValue
5.190

@<SCITEGIC>MOL_PROPERTY
Bond
SciTegic.value.DoubleValue
0.156

@<SCITEGIC>MOL_PROPERTY
Angle
SciTegic.value.DoubleValue
0.974

@<SCITEGIC>MOL_PROPERTY
Pdih
SciTegic.value.DoubleValue
1.799

@<SCITEGIC>MOL_PROPERTY
Idih
SciTegic.value.DoubleValue
0.000

@<SCITEGIC>MOL_PROPERTY
Tether
SciTegic.value.DoubleValue
0.000

@<TRIPOS>MOLECULE
guest-s11_confgen4.mol2 : confsearch ligand conformer 970
          20          19           1
SMALL
USER_CHARGES
 
@<TRIPOS>ATOM
       1    N1      18.433588   20.678214   22.950225 N.4        1 MOL1        -0.5919
       2    H1      19.316679   20.652664   23.466487 H          1 MOL1         0.3682
       3    H2      18.492619   21.458330   22.288230 H          1 MOL1         0.3682
       4    H3      17.697694   20.915742   23.623785 H          1 MOL1         0.3682
       5    C1      18.149146   19.364461   22.247577 C.3        1 MOL1         0.0252
       6    H4      17.188989   19.478362   21.737005 H          1 MOL1         0.0971
       7    H5      18.039235   18.581664   23.002883 H          1 MOL1         0.0971
       8    C2      19.218982   18.950183   21.215442 C.3        1 MOL1        -0.1369
       9    H6      18.747379   18.257154   20.506096 H          1 MOL1         0.0997
      10    H7      19.528500   19.821727   20.623475 H          1 MOL1         0.0997
      11    C3      20.457456   18.240046   21.820141 C.3        1 MOL1        -0.1329
      12    H8      21.089198   17.890571   20.991740 H          1 MOL1         0.0997
      13    H9      20.135423   17.338548   22.359641 H          1 MOL1         0.0997
      14    C4      21.310038   19.125761   22.758718 C.3        1 MOL1        -0.1305
      15    H10     21.545692   20.077665   22.262442 H          1 MOL1         0.0997
      16    H11     20.744684   19.362340   23.668803 H          1 MOL1         0.0997
      17    C5      22.623452   18.423622   23.164872 C.3        1 MOL1        -0.2320
      18    H12     23.242315   18.202485   22.285479 H          1 MOL1         0.1008
      19    H13     23.211803   19.060732   23.837914 H          1 MOL1         0.1008
      20    H14     22.421201   17.479112   23.686663 H          1 MOL1         0.1008
@<TRIPOS>BOND
    1     1     2    1
    2     1     3    1
    3     1     4    1
    4     1     5    1
    5     5     6    1
    6     5     7    1
    7     5     8    1
    8     8     9    1
    9     8    10    1
   10     8    11    1
   11    11    12    1
   12    11    13    1
   13    11    14    1
   14    14    15    1
   15    14    16    1
   16    14    17    1
   17    17    18    1
   18    17    19    1
   19    17    20    1
@<TRIPOS>SUBSTRUCTURE
       1 MOL1            1 RESIDUE      1      MOL     
@<SCITEGIC>MOL_PROPERTY
VConf Rank
SciTegic.value.IntegerValue
970

@<SCITEGIC>MOL_PROPERTY
Conf_Id
SciTegic.value.IntegerValue
26

@<SCITEGIC>MOL_PROPERTY
Delta U+W
SciTegic.value.DoubleValue
2.809

@<SCITEGIC>MOL_PROPERTY
U+W
SciTegic.value.DoubleValue
-8.969

@<SCITEGIC>MOL_PROPERTY
Grad RMS
SciTegic.value.DoubleValue
0.000000

@<SCITEGIC>MOL_PROPERTY
U
SciTegic.value.DoubleValue
49.216

@<SCITEGIC>MOL_PROPERTY
W
SciTegic.value.DoubleValue
-58.185

@<SCITEGIC>MOL_PROPERTY
W(PB)
SciTegic.value.DoubleValue
-60.088

@<SCITEGIC>MOL_PROPERTY
W(SA)
SciTegic.value.DoubleValue
1.903

@<SCITEGIC>MOL_PROPERTY
Valence
SciTegic.value.DoubleValue
2.929

@<SCITEGIC>MOL_PROPERTY
Coulomb
SciTegic.value.DoubleValue
46.006

@<SCITEGIC>MOL_PROPERTY
VdW
SciTegic.value.DoubleValue
0.281

@<SCITEGIC>MOL_PROPERTY
VdW6
SciTegic.value.DoubleValue
-4.909

@<SCITEGIC>MOL_PROPERTY
VdW12
SciTegic.value.DoubleValue
5.190

@<SCITEGIC>MOL_PROPERTY
Bond
SciTegic.value.DoubleValue
0.156

@<SCITEGIC>MOL_PROPERTY
Angle
SciTegic.value.DoubleValue
0.974

@<SCITEGIC>MOL_PROPERTY
Pdih
SciTegic.value.DoubleValue
1.799

@<SCITEGIC>MOL_PROPERTY
Idih
SciTegic.value.DoubleValue
0.000

@<SCITEGIC>MOL_PROPERTY
Tether
SciTegic.value.DoubleValue
0.000

@<TRIPOS>MOLECULE
guest-s11_confgen4.mol2 : confsearch ligand conformer 971
          20          19           1
SMALL
USER_CHARGES
 
@<TRIPOS>ATOM
       1    N1      19.676904   19.890903   24.729469 N.4        1 MOL1        -0.5919
       2    H1      18.861889   19.356869   24.414036 H          1 MOL1         0.3682
       3    H2      20.114612   19.356508   25.486352 H          1 MOL1         0.3682
       4    H3      19.324862   20.760568   25.143063 H          1 MOL1         0.3682
       5    C1      20.646075   20.158217   23.594458 C.3        1 MOL1         0.0252
       6    H4      21.470466   20.755032   23.994082 H          1 MOL1         0.0971
       7    H5      20.129083   20.756733   22.839853 H          1 MOL1         0.0971
       8    C2      21.209084   18.877379   22.945793 C.3        1 MOL1        -0.1369
       9    H6      21.954433   19.160930   22.191748 H          1 MOL1         0.0997
      10    H7      21.754968   18.300734   23.704166 H          1 MOL1         0.0997
      11    C3      20.129204   17.972575   22.296035 C.3        1 MOL1        -0.1329
      12    H8      19.481209   17.559338   23.080601 H          1 MOL1         0.0997
      13    H9      20.624323   17.107396   21.833950 H          1 MOL1         0.0997
      14    C4      19.245685   18.675041   21.233506 C.3        1 MOL1        -0.1305
      15    H10     18.507251   17.952654   20.858375 H          1 MOL1         0.0997
      16    H11     18.666328   19.485525   21.696063 H          1 MOL1         0.0997
      17    C5      20.050857   19.230378   20.036785 C.3        1 MOL1        -0.2320
      18    H12     20.652662   18.442212   19.566056 H          1 MOL1         0.1008
      19    H13     19.374533   19.636887   19.273751 H          1 MOL1         0.1008
      20    H14     20.724444   20.039516   20.345297 H          1 MOL1         0.1008
@<TRIPOS>BOND
    1     1     2    1
    2     1     3    1
    3     1     4    1
    4     1     5    1
    5     5     6    1
    6     5     7    1
    7     5     8    1
    8     8     9    1
    9     8    10    1
   10     8    11    1
   11    11    12    1
   12    11    13    1
   13    11    14    1
   14    14    15    1
   15    14    16    1
   16    14    17    1
   17    17    18    1
   18    17    19    1
   19    17    20    1
@<TRIPOS>SUBSTRUCTURE
       1 MOL1            1 RESIDUE      1      MOL     
@<SCITEGIC>MOL_PROPERTY
VConf Rank
SciTegic.value.IntegerValue
971

@<SCITEGIC>MOL_PROPERTY
Conf_Id
SciTegic.value.IntegerValue
2

@<SCITEGIC>MOL_PROPERTY
Delta U+W
SciTegic.value.DoubleValue
0.994

@<SCITEGIC>MOL_PROPERTY
U+W
SciTegic.value.DoubleValue
-10.784

@<SCITEGIC>MOL_PROPERTY
Grad RMS
SciTegic.value.DoubleValue
0.000000

@<SCITEGIC>MOL_PROPERTY
U
SciTegic.value.DoubleValue
47.562

@<SCITEGIC>MOL_PROPERTY
W
SciTegic.value.DoubleValue
-58.346

@<SCITEGIC>MOL_PROPERTY
W(PB)
SciTegic.value.DoubleValue
-60.221

@<SCITEGIC>MOL_PROPERTY
W(SA)
SciTegic.value.DoubleValue
1.875

@<SCITEGIC>MOL_PROPERTY
Valence
SciTegic.value.DoubleValue
2.149

@<SCITEGIC>MOL_PROPERTY
Coulomb
SciTegic.value.DoubleValue
45.034

@<SCITEGIC>MOL_PROPERTY
VdW
SciTegic.value.DoubleValue
0.378

@<SCITEGIC>MOL_PROPERTY
VdW6
SciTegic.value.DoubleValue
-5.599

@<SCITEGIC>MOL_PROPERTY
VdW12
SciTegic.value.DoubleValue
5.977

@<SCITEGIC>MOL_PROPERTY
Bond
SciTegic.value.DoubleValue
0.185

@<SCITEGIC>MOL_PROPERTY
Angle
SciTegic.value.DoubleValue
0.935

@<SCITEGIC>MOL_PROPERTY
Pdih
SciTegic.value.DoubleValue
1.028

@<SCITEGIC>MOL_PROPERTY
Idih
SciTegic.value.DoubleValue
0.000

@<SCITEGIC>MOL_PROPERTY
Tether
SciTegic.value.DoubleValue
0.000

@<TRIPOS>MOLECULE
guest-s11_confgen4.mol2 : confsearch ligand conformer 972
          20          19           1
SMALL
USER_CHARGES
 
@<TRIPOS>ATOM
       1    N1      20.057097   20.978502   23.962144 N.4        1 MOL1        -0.5919
       2    H1      19.218801   21.064744   24.545119 H          1 MOL1         0.3682
       3    H2      20.662971   20.281290   24.404584 H          1 MOL1         0.3682
       4    H3      20.547944   21.877415   24.010437 H          1 MOL1         0.3682
       5    C1      19.714501   20.599108   22.534669 C.3        1 MOL1         0.0252
       6    H4      20.644482   20.556448   21.961739 H          1 MOL1         0.0971
       7    H5      19.095495   21.397894   22.117199 H          1 MOL1         0.0971
       8    C2      18.966948   19.255741   22.412949 C.3        1 MOL1        -0.1369
       9    H6      18.019132   19.320894   22.963438 H          1 MOL1         0.0997
      10    H7      18.692360   19.097629   21.362171 H          1 MOL1         0.0997
      11    C3      19.774399   18.035776   22.929381 C.3        1 MOL1        -0.1329
      12    H8      19.179071   17.125762   22.772349 H          1 MOL1         0.0997
      13    H9      19.905457   18.120515   24.016510 H          1 MOL1         0.0997
      14    C4      21.164494   17.849355   22.269138 C.3        1 MOL1        -0.1305
      15    H10     21.811344   18.707756   22.495475 H          1 MOL1         0.0997
      16    H11     21.653515   16.975589   22.722172 H          1 MOL1         0.0997
      17    C5      21.093636   17.642232   20.739132 C.3        1 MOL1        -0.2320
      18    H12     20.716108   18.536925   20.228643 H          1 MOL1         0.1008
      19    H13     22.090690   17.426937   20.333649 H          1 MOL1         0.1008
      20    H14     20.438766   16.798766   20.484829 H          1 MOL1         0.1008
@<TRIPOS>BOND
    1     1     2    1
    2     1     3    1
    3     1     4    1
    4     1     5    1
    5     5     6    1
    6     5     7    1
    7     5     8    1
    8     8     9    1
    9     8    10    1
   10     8    11    1
   11    11    12    1
   12    11    13    1
   13    11    14    1
   14    14    15    1
   15    14    16    1
   16    14    17    1
   17    17    18    1
   18    17    19    1
   19    17    20    1
@<TRIPOS>SUBSTRUCTURE
       1 MOL1            1 RESIDUE      1      MOL     
@<SCITEGIC>MOL_PROPERTY
VConf Rank
SciTegic.value.IntegerValue
972

@<SCITEGIC>MOL_PROPERTY
Conf_Id
SciTegic.value.IntegerValue
1

@<SCITEGIC>MOL_PROPERTY
Delta U+W
SciTegic.value.DoubleValue
1.032

@<SCITEGIC>MOL_PROPERTY
U+W
SciTegic.value.DoubleValue
-10.746

@<SCITEGIC>MOL_PROPERTY
Grad RMS
SciTegic.value.DoubleValue
0.000000

@<SCITEGIC>MOL_PROPERTY
U
SciTegic.value.DoubleValue
47.562

@<SCITEGIC>MOL_PROPERTY
W
SciTegic.value.DoubleValue
-58.308

@<SCITEGIC>MOL_PROPERTY
W(PB)
SciTegic.value.DoubleValue
-60.184

@<SCITEGIC>MOL_PROPERTY
W(SA)
SciTegic.value.DoubleValue
1.877

@<SCITEGIC>MOL_PROPERTY
Valence
SciTegic.value.DoubleValue
2.149

@<SCITEGIC>MOL_PROPERTY
Coulomb
SciTegic.value.DoubleValue
45.035

@<SCITEGIC>MOL_PROPERTY
VdW
SciTegic.value.DoubleValue
0.378

@<SCITEGIC>MOL_PROPERTY
VdW6
SciTegic.value.DoubleValue
-5.599

@<SCITEGIC>MOL_PROPERTY
VdW12
SciTegic.value.DoubleValue
5.978

@<SCITEGIC>MOL_PROPERTY
Bond
SciTegic.value.DoubleValue
0.185

@<SCITEGIC>MOL_PROPERTY
Angle
SciTegic.value.DoubleValue
0.935

@<SCITEGIC>MOL_PROPERTY
Pdih
SciTegic.value.DoubleValue
1.028

@<SCITEGIC>MOL_PROPERTY
Idih
SciTegic.value.DoubleValue
0.000

@<SCITEGIC>MOL_PROPERTY
Tether
SciTegic.value.DoubleValue
0.000

@<TRIPOS>MOLECULE
guest-s11_confgen4.mol2 : confsearch ligand conformer 973
          20          19           1
SMALL
USER_CHARGES
 
@<TRIPOS>ATOM
       1    N1      18.581835   19.285762   24.125106 N.4        1 MOL1        -0.5919
       2    H1      17.601555   19.345772   23.832632 H          1 MOL1         0.3682
       3    H2      18.859701   18.302760   24.053119 H          1 MOL1         0.3682
       4    H3      18.611764   19.533208   25.119701 H          1 MOL1         0.3682
       5    C1      19.475036   20.186246   23.293796 C.3        1 MOL1         0.0252
       6    H4      20.492686   20.096793   23.677079 H          1 MOL1         0.0971
       7    H5      19.144515   21.215938   23.455091 H          1 MOL1         0.0971
       8    C2      19.440790   19.874989   21.782287 C.3        1 MOL1        -0.1369
       9    H6      18.401570   19.966100   21.439446 H          1 MOL1         0.0997
      10    H7      20.004581   20.645207   21.239587 H          1 MOL1         0.0997
      11    C3      19.975352   18.469500   21.396068 C.3        1 MOL1        -0.1329
      12    H8      19.534324   18.196385   20.427396 H          1 MOL1         0.0997
      13    H9      19.617435   17.710907   22.103992 H          1 MOL1         0.0997
      14    C4      21.515566   18.370693   21.247705 C.3        1 MOL1        -0.1305
      15    H10     21.762541   17.363184   20.884555 H          1 MOL1         0.0997
      16    H11     21.858211   19.065472   20.468180 H          1 MOL1         0.0997
      17    C5      22.305179   18.629719   22.549760 C.3        1 MOL1        -0.2320
      18    H12     21.910782   18.031697   23.381373 H          1 MOL1         0.1008
      19    H13     23.361133   18.361585   22.415617 H          1 MOL1         0.1008
      20    H14     22.274733   19.688846   22.831500 H          1 MOL1         0.1008
@<TRIPOS>BOND
    1     1     2    1
    2     1     3    1
    3     1     4    1
    4     1     5    1
    5     5     6    1
    6     5     7    1
    7     5     8    1
    8     8     9    1
    9     8    10    1
   10     8    11    1
   11    11    12    1
   12    11    13    1
   13    11    14    1
   14    14    15    1
   15    14    16    1
   16    14    17    1
   17    17    18    1
   18    17    19    1
   19    17    20    1
@<TRIPOS>SUBSTRUCTURE
       1 MOL1            1 RESIDUE      1      MOL     
@<SCITEGIC>MOL_PROPERTY
VConf Rank
SciTegic.value.IntegerValue
973

@<SCITEGIC>MOL_PROPERTY
Conf_Id
SciTegic.value.IntegerValue
80

@<SCITEGIC>MOL_PROPERTY
Delta U+W
SciTegic.value.DoubleValue
2.920

@<SCITEGIC>MOL_PROPERTY
U+W
SciTegic.value.DoubleValue
-8.857

@<SCITEGIC>MOL_PROPERTY
Grad RMS
SciTegic.value.DoubleValue
0.000000

@<SCITEGIC>MOL_PROPERTY
U
SciTegic.value.DoubleValue
49.434

@<SCITEGIC>MOL_PROPERTY
W
SciTegic.value.DoubleValue
-58.292

@<SCITEGIC>MOL_PROPERTY
W(PB)
SciTegic.value.DoubleValue
-60.170

@<SCITEGIC>MOL_PROPERTY
W(SA)
SciTegic.value.DoubleValue
1.879

@<SCITEGIC>MOL_PROPERTY
Valence
SciTegic.value.DoubleValue
3.798

@<SCITEGIC>MOL_PROPERTY
Coulomb
SciTegic.value.DoubleValue
45.253

@<SCITEGIC>MOL_PROPERTY
VdW
SciTegic.value.DoubleValue
0.384

@<SCITEGIC>MOL_PROPERTY
VdW6
SciTegic.value.DoubleValue
-5.595

@<SCITEGIC>MOL_PROPERTY
VdW12
SciTegic.value.DoubleValue
5.979

@<SCITEGIC>MOL_PROPERTY
Bond
SciTegic.value.DoubleValue
0.198

@<SCITEGIC>MOL_PROPERTY
Angle
SciTegic.value.DoubleValue
1.368

@<SCITEGIC>MOL_PROPERTY
Pdih
SciTegic.value.DoubleValue
2.231

@<SCITEGIC>MOL_PROPERTY
Idih
SciTegic.value.DoubleValue
0.000

@<SCITEGIC>MOL_PROPERTY
Tether
SciTegic.value.DoubleValue
0.000

@<TRIPOS>MOLECULE
guest-s11_confgen4.mol2 : confsearch ligand conformer 974
          20          19           1
SMALL
USER_CHARGES
 
@<TRIPOS>ATOM
       1    N1      18.379037   17.767953   22.788377 N.4        1 MOL1        -0.5919
       2    H1      18.012415   17.628613   23.735088 H          1 MOL1         0.3682
       3    H2      17.687190   17.377108   22.140353 H          1 MOL1         0.3682
       4    H3      19.224357   17.196145   22.703777 H          1 MOL1         0.3682
       5    C1      18.656896   19.230678   22.500300 C.3        1 MOL1         0.0252
       6    H4      17.705453   19.765170   22.568113 H          1 MOL1         0.0971
       7    H5      19.012947   19.309019   21.471899 H          1 MOL1         0.0971
       8    C2      19.669659   19.875855   23.470240 C.3        1 MOL1        -0.1369
       9    H6      19.717518   20.956244   23.280274 H          1 MOL1         0.0997
      10    H7      19.279823   19.767484   24.491075 H          1 MOL1         0.0997
      11    C3      21.099319   19.273323   23.412335 C.3        1 MOL1        -0.1329
      12    H8      21.055843   18.179056   23.338774 H          1 MOL1         0.0997
      13    H9      21.591543   19.482312   24.372264 H          1 MOL1         0.0997
      14    C4      22.007551   19.843781   22.292633 C.3        1 MOL1        -0.1305
      15    H10     22.125655   20.928051   22.427518 H          1 MOL1         0.0997
      16    H11     23.011797   19.413197   22.411108 H          1 MOL1         0.0997
      17    C5      21.516743   19.555276   20.856737 C.3        1 MOL1        -0.2320
      18    H12     20.628446   20.149175   20.611249 H          1 MOL1         0.1008
      19    H13     22.293429   19.819600   20.127477 H          1 MOL1         0.1008
      20    H14     21.278908   18.492206   20.722289 H          1 MOL1         0.1008
@<TRIPOS>BOND
    1     1     2    1
    2     1     3    1
    3     1     4    1
    4     1     5    1
    5     5     6    1
    6     5     7    1
    7     5     8    1
    8     8     9    1
    9     8    10    1
   10     8    11    1
   11    11    12    1
   12    11    13    1
   13    11    14    1
   14    14    15    1
   15    14    16    1
   16    14    17    1
   17    17    18    1
   18    17    19    1
   19    17    20    1
@<TRIPOS>SUBSTRUCTURE
       1 MOL1            1 RESIDUE      1      MOL     
@<SCITEGIC>MOL_PROPERTY
VConf Rank
SciTegic.value.IntegerValue
974

@<SCITEGIC>MOL_PROPERTY
Conf_Id
SciTegic.value.IntegerValue
65

@<SCITEGIC>MOL_PROPERTY
Delta U+W
SciTegic.value.DoubleValue
2.949

@<SCITEGIC>MOL_PROPERTY
U+W
SciTegic.value.DoubleValue
-8.829

@<SCITEGIC>MOL_PROPERTY
Grad RMS
SciTegic.value.DoubleValue
0.000000

@<SCITEGIC>MOL_PROPERTY
U
SciTegic.value.DoubleValue
49.435

@<SCITEGIC>MOL_PROPERTY
W
SciTegic.value.DoubleValue
-58.263

@<SCITEGIC>MOL_PROPERTY
W(PB)
SciTegic.value.DoubleValue
-60.125

@<SCITEGIC>MOL_PROPERTY
W(SA)
SciTegic.value.DoubleValue
1.862

@<SCITEGIC>MOL_PROPERTY
Valence
SciTegic.value.DoubleValue
3.797

@<SCITEGIC>MOL_PROPERTY
Coulomb
SciTegic.value.DoubleValue
45.253

@<SCITEGIC>MOL_PROPERTY
VdW
SciTegic.value.DoubleValue
0.384

@<SCITEGIC>MOL_PROPERTY
VdW6
SciTegic.value.DoubleValue
-5.596

@<SCITEGIC>MOL_PROPERTY
VdW12
SciTegic.value.DoubleValue
5.980

@<SCITEGIC>MOL_PROPERTY
Bond
SciTegic.value.DoubleValue
0.198

@<SCITEGIC>MOL_PROPERTY
Angle
SciTegic.value.DoubleValue
1.369

@<SCITEGIC>MOL_PROPERTY
Pdih
SciTegic.value.DoubleValue
2.230

@<SCITEGIC>MOL_PROPERTY
Idih
SciTegic.value.DoubleValue
0.000

@<SCITEGIC>MOL_PROPERTY
Tether
SciTegic.value.DoubleValue
0.000

@<TRIPOS>MOLECULE
guest-s11_confgen4.mol2 : confsearch ligand conformer 975
          20          19           1
SMALL
USER_CHARGES
 
@<TRIPOS>ATOM
       1    N1      19.876077   19.797433   20.579405 N.4        1 MOL1        -0.5919
       2    H1      19.382253   19.468833   19.742839 H          1 MOL1         0.3682
       3    H2      19.169628   19.987787   21.296636 H          1 MOL1         0.3682
       4    H3      20.312206   20.692323   20.335746 H          1 MOL1         0.3682
       5    C1      20.897900   18.787191   21.064011 C.3        1 MOL1         0.0252
       6    H4      21.612712   18.640165   20.249795 H          1 MOL1         0.0971
       7    H5      20.391263   17.835743   21.246405 H          1 MOL1         0.0971
       8    C2      21.660784   19.225771   22.330527 C.3        1 MOL1        -0.1369
       9    H6      22.610746   18.675513   22.355000 H          1 MOL1         0.0997
      10    H7      21.932702   20.286766   22.252045 H          1 MOL1         0.0997
      11    C3      20.924972   18.959422   23.671236 C.3        1 MOL1        -0.1329
      12    H8      21.599665   19.266405   24.482454 H          1 MOL1         0.0997
      13    H9      20.774870   17.879488   23.807896 H          1 MOL1         0.0997
      14    C4      19.581591   19.710539   23.854737 C.3        1 MOL1        -0.1305
      15    H10     19.478862   19.990392   24.912748 H          1 MOL1         0.0997
      16    H11     19.591730   20.657721   23.298854 H          1 MOL1         0.0997
      17    C5      18.350259   18.856186   23.470391 C.3        1 MOL1        -0.2320
      18    H12     18.407895   18.474506   22.445406 H          1 MOL1         0.1008
      19    H13     18.257713   17.990108   24.138722 H          1 MOL1         0.1008
      20    H14     17.427598   19.443927   23.562254 H          1 MOL1         0.1008
@<TRIPOS>BOND
    1     1     2    1
    2     1     3    1
    3     1     4    1
    4     1     5    1
    5     5     6    1
    6     5     7    1
    7     5     8    1
    8     8     9    1
    9     8    10    1
   10     8    11    1
   11    11    12    1
   12    11    13    1
   13    11    14    1
   14    14    15    1
   15    14    16    1
   16    14    17    1
   17    17    18    1
   18    17    19    1
   19    17    20    1
@<TRIPOS>SUBSTRUCTURE
       1 MOL1            1 RESIDUE      1      MOL     
@<SCITEGIC>MOL_PROPERTY
VConf Rank
SciTegic.value.IntegerValue
975

@<SCITEGIC>MOL_PROPERTY
Conf_Id
SciTegic.value.IntegerValue
77

@<SCITEGIC>MOL_PROPERTY
Delta U+W
SciTegic.value.DoubleValue
5.366

@<SCITEGIC>MOL_PROPERTY
U+W
SciTegic.value.DoubleValue
-6.412

@<SCITEGIC>MOL_PROPERTY
Grad RMS
SciTegic.value.DoubleValue
0.000000

@<SCITEGIC>MOL_PROPERTY
U
SciTegic.value.DoubleValue
51.542

@<SCITEGIC>MOL_PROPERTY
W
SciTegic.value.DoubleValue
-57.954

@<SCITEGIC>MOL_PROPERTY
W(PB)
SciTegic.value.DoubleValue
-59.811

@<SCITEGIC>MOL_PROPERTY
W(SA)
SciTegic.value.DoubleValue
1.857

@<SCITEGIC>MOL_PROPERTY
Valence
SciTegic.value.DoubleValue
5.347

@<SCITEGIC>MOL_PROPERTY
Coulomb
SciTegic.value.DoubleValue
45.870

@<SCITEGIC>MOL_PROPERTY
VdW
SciTegic.value.DoubleValue
0.325

@<SCITEGIC>MOL_PROPERTY
VdW6
SciTegic.value.DoubleValue
-6.161

@<SCITEGIC>MOL_PROPERTY
VdW12
SciTegic.value.DoubleValue
6.486

@<SCITEGIC>MOL_PROPERTY
Bond
SciTegic.value.DoubleValue
0.201

@<SCITEGIC>MOL_PROPERTY
Angle
SciTegic.value.DoubleValue
1.484

@<SCITEGIC>MOL_PROPERTY
Pdih
SciTegic.value.DoubleValue
3.662

@<SCITEGIC>MOL_PROPERTY
Idih
SciTegic.value.DoubleValue
0.000

@<SCITEGIC>MOL_PROPERTY
Tether
SciTegic.value.DoubleValue
0.000

@<TRIPOS>MOLECULE
guest-s11_confgen4.mol2 : confsearch ligand conformer 976
          20          19           1
SMALL
USER_CHARGES
 
@<TRIPOS>ATOM
       1    N1      21.524818   18.224007   23.679319 N.4        1 MOL1        -0.5919
       2    H1      22.471465   18.128134   23.298431 H          1 MOL1         0.3682
       3    H2      21.305058   19.224470   23.701796 H          1 MOL1         0.3682
       4    H3      21.559538   17.896258   24.650430 H          1 MOL1         0.3682
       5    C1      20.508130   17.452749   22.860130 C.3        1 MOL1         0.0252
       6    H4      19.531831   17.534850   23.345207 H          1 MOL1         0.0971
       7    H5      20.810642   16.402268   22.882425 H          1 MOL1         0.0971
       8    C2      20.404663   17.915738   21.392702 C.3        1 MOL1        -0.1369
       9    H6      21.409256   18.099108   20.988997 H          1 MOL1         0.0997
      10    H7      19.995966   17.081161   20.807673 H          1 MOL1         0.0997
      11    C3      19.496972   19.151806   21.151673 C.3        1 MOL1        -0.1329
      12    H8      18.461215   18.916393   21.433192 H          1 MOL1         0.0997
      13    H9      19.471875   19.334233   20.068337 H          1 MOL1         0.0997
      14    C4      19.953190   20.459454   21.847693 C.3        1 MOL1        -0.1305
      15    H10     21.045052   20.471277   21.965840 H          1 MOL1         0.0997
      16    H11     19.718527   21.307040   21.188307 H          1 MOL1         0.0997
      17    C5      19.247047   20.705140   23.202249 C.3        1 MOL1        -0.2320
      18    H12     19.639499   21.609790   23.684712 H          1 MOL1         0.1008
      19    H13     18.169006   20.851173   23.054522 H          1 MOL1         0.1008
      20    H14     19.372124   19.868820   23.898323 H          1 MOL1         0.1008
@<TRIPOS>BOND
    1     1     2    1
    2     1     3    1
    3     1     4    1
    4     1     5    1
    5     5     6    1
    6     5     7    1
    7     5     8    1
    8     8     9    1
    9     8    10    1
   10     8    11    1
   11    11    12    1
   12    11    13    1
   13    11    14    1
   14    14    15    1
   15    14    16    1
   16    14    17    1
   17    17    18    1
   18    17    19    1
   19    17    20    1
@<TRIPOS>SUBSTRUCTURE
       1 MOL1            1 RESIDUE      1      MOL     
@<SCITEGIC>MOL_PROPERTY
VConf Rank
SciTegic.value.IntegerValue
976

@<SCITEGIC>MOL_PROPERTY
Conf_Id
SciTegic.value.IntegerValue
67

@<SCITEGIC>MOL_PROPERTY
Delta U+W
SciTegic.value.DoubleValue
5.353

@<SCITEGIC>MOL_PROPERTY
U+W
SciTegic.value.DoubleValue
-6.425

@<SCITEGIC>MOL_PROPERTY
Grad RMS
SciTegic.value.DoubleValue
0.000000

@<SCITEGIC>MOL_PROPERTY
U
SciTegic.value.DoubleValue
51.541

@<SCITEGIC>MOL_PROPERTY
W
SciTegic.value.DoubleValue
-57.966

@<SCITEGIC>MOL_PROPERTY
W(PB)
SciTegic.value.DoubleValue
-59.821

@<SCITEGIC>MOL_PROPERTY
W(SA)
SciTegic.value.DoubleValue
1.855

@<SCITEGIC>MOL_PROPERTY
Valence
SciTegic.value.DoubleValue
5.347

@<SCITEGIC>MOL_PROPERTY
Coulomb
SciTegic.value.DoubleValue
45.870

@<SCITEGIC>MOL_PROPERTY
VdW
SciTegic.value.DoubleValue
0.325

@<SCITEGIC>MOL_PROPERTY
VdW6
SciTegic.value.DoubleValue
-6.161

@<SCITEGIC>MOL_PROPERTY
VdW12
SciTegic.value.DoubleValue
6.486

@<SCITEGIC>MOL_PROPERTY
Bond
SciTegic.value.DoubleValue
0.201

@<SCITEGIC>MOL_PROPERTY
Angle
SciTegic.value.DoubleValue
1.485

@<SCITEGIC>MOL_PROPERTY
Pdih
SciTegic.value.DoubleValue
3.662

@<SCITEGIC>MOL_PROPERTY
Idih
SciTegic.value.DoubleValue
0.000

@<SCITEGIC>MOL_PROPERTY
Tether
SciTegic.value.DoubleValue
0.000

@<TRIPOS>MOLECULE
guest-s11_confgen4.mol2 : confsearch ligand conformer 977
          20          19           1
SMALL
USER_CHARGES
 
@<TRIPOS>ATOM
       1    N1      21.194273   16.137336   21.911864 N.4        1 MOL1        -0.5919
       2    H1      20.286021   15.663038   21.934376 H          1 MOL1         0.3682
       3    H2      21.763346   15.656226   21.207386 H          1 MOL1         0.3682
       4    H3      21.642583   15.972754   22.818682 H          1 MOL1         0.3682
       5    C1      21.054267   17.615547   21.608917 C.3        1 MOL1         0.0252
       6    H4      20.599194   17.715745   20.619783 H          1 MOL1         0.0971
       7    H5      22.057463   18.048728   21.570605 H          1 MOL1         0.0971
       8    C2      20.204567   18.368271   22.648474 C.3        1 MOL1        -0.1369
       9    H6      19.203183   17.919797   22.695044 H          1 MOL1         0.0997
      10    H7      20.656420   18.251640   23.642604 H          1 MOL1         0.0997
      11    C3      20.086846   19.869506   22.303265 C.3        1 MOL1        -0.1329
      12    H8      19.639247   19.982343   21.305912 H          1 MOL1         0.0997
      13    H9      21.090735   20.313818   22.252419 H          1 MOL1         0.0997
      14    C4      19.235510   20.635604   23.340500 C.3        1 MOL1        -0.1305
      15    H10     18.229666   20.195645   23.393066 H          1 MOL1         0.0997
      16    H11     19.680989   20.527164   24.339418 H          1 MOL1         0.0997
      17    C5      19.120594   22.134926   22.991494 C.3        1 MOL1        -0.2320
      18    H12     18.646670   22.277219   22.011512 H          1 MOL1         0.1008
      19    H13     18.512919   22.661515   23.738808 H          1 MOL1         0.1008
      20    H14     20.109300   22.611364   22.965388 H          1 MOL1         0.1008
@<TRIPOS>BOND
    1     1     2    1
    2     1     3    1
    3     1     4    1
    4     1     5    1
    5     5     6    1
    6     5     7    1
    7     5     8    1
    8     8     9    1
    9     8    10    1
   10     8    11    1
   11    11    12    1
   12    11    13    1
   13    11    14    1
   14    14    15    1
   15    14    16    1
   16    14    17    1
   17    17    18    1
   18    17    19    1
   19    17    20    1
@<TRIPOS>SUBSTRUCTURE
       1 MOL1            1 RESIDUE      1      MOL     
@<SCITEGIC>MOL_PROPERTY
VConf Rank
SciTegic.value.IntegerValue
977

@<SCITEGIC>MOL_PROPERTY
Conf_Id
SciTegic.value.IntegerValue
72

@<SCITEGIC>MOL_PROPERTY
Delta U+W
SciTegic.value.DoubleValue
0.000

@<SCITEGIC>MOL_PROPERTY
U+W
SciTegic.value.DoubleValue
-11.778

@<SCITEGIC>MOL_PROPERTY
Grad RMS
SciTegic.value.DoubleValue
0.000000

@<SCITEGIC>MOL_PROPERTY
U
SciTegic.value.DoubleValue
45.772

@<SCITEGIC>MOL_PROPERTY
W
SciTegic.value.DoubleValue
-57.550

@<SCITEGIC>MOL_PROPERTY
W(PB)
SciTegic.value.DoubleValue
-59.511

@<SCITEGIC>MOL_PROPERTY
W(SA)
SciTegic.value.DoubleValue
1.961

@<SCITEGIC>MOL_PROPERTY
Valence
SciTegic.value.DoubleValue
1.299

@<SCITEGIC>MOL_PROPERTY
Coulomb
SciTegic.value.DoubleValue
44.177

@<SCITEGIC>MOL_PROPERTY
VdW
SciTegic.value.DoubleValue
0.297

@<SCITEGIC>MOL_PROPERTY
VdW6
SciTegic.value.DoubleValue
-3.490

@<SCITEGIC>MOL_PROPERTY
VdW12
SciTegic.value.DoubleValue
3.786

@<SCITEGIC>MOL_PROPERTY
Bond
SciTegic.value.DoubleValue
0.096

@<SCITEGIC>MOL_PROPERTY
Angle
SciTegic.value.DoubleValue
0.381

@<SCITEGIC>MOL_PROPERTY
Pdih
SciTegic.value.DoubleValue
0.822

@<SCITEGIC>MOL_PROPERTY
Idih
SciTegic.value.DoubleValue
0.000

@<SCITEGIC>MOL_PROPERTY
Tether
SciTegic.value.DoubleValue
0.000

@<TRIPOS>MOLECULE
guest-s11_confgen4.mol2 : confsearch ligand conformer 978
          20          19           1
SMALL
USER_CHARGES
 
@<TRIPOS>ATOM
       1    N1      18.310181   21.515547   21.881680 N.4        1 MOL1        -0.5919
       2    H1      18.618942   21.531882   20.904574 H          1 MOL1         0.3682
       3    H2      17.417524   21.012683   21.907264 H          1 MOL1         0.3682
       4    H3      18.112198   22.486094   22.147054 H          1 MOL1         0.3682
       5    C1      19.343276   20.882573   22.791973 C.3        1 MOL1         0.0252
       6    H4      18.962866   20.926852   23.816093 H          1 MOL1         0.0971
       7    H5      20.254635   21.484260   22.738094 H          1 MOL1         0.0971
       8    C2      19.663733   19.423409   22.421274 C.3        1 MOL1        -0.1369
       9    H6      18.743065   18.826259   22.461178 H          1 MOL1         0.0997
      10    H7      20.027500   19.388870   21.386601 H          1 MOL1         0.0997
      11    C3      20.719177   18.817694   23.376406 C.3        1 MOL1        -0.1329
      12    H8      20.370728   18.930744   24.412526 H          1 MOL1         0.0997
      13    H9      21.655886   19.387478   23.302182 H          1 MOL1         0.0997
      14    C4      21.002893   17.318743   23.113116 C.3        1 MOL1        -0.1305
      15    H10     21.678562   16.945052   23.895270 H          1 MOL1         0.0997
      16    H11     20.072650   16.741554   23.209947 H          1 MOL1         0.0997
      17    C5      21.641679   17.047214   21.731901 C.3        1 MOL1        -0.2320
      18    H12     22.559435   17.634549   21.598580 H          1 MOL1         0.1008
      19    H13     21.905412   15.986299   21.632621 H          1 MOL1         0.1008
      20    H14     20.953686   17.293140   20.913604 H          1 MOL1         0.1008
@<TRIPOS>BOND
    1     1     2    1
    2     1     3    1
    3     1     4    1
    4     1     5    1
    5     5     6    1
    6     5     7    1
    7     5     8    1
    8     8     9    1
    9     8    10    1
   10     8    11    1
   11    11    12    1
   12    11    13    1
   13    11    14    1
   14    14    15    1
   15    14    16    1
   16    14    17    1
   17    17    18    1
   18    17    19    1
   19    17    20    1
@<TRIPOS>SUBSTRUCTURE
       1 MOL1            1 RESIDUE      1      MOL     
@<SCITEGIC>MOL_PROPERTY
VConf Rank
SciTegic.value.IntegerValue
978

@<SCITEGIC>MOL_PROPERTY
Conf_Id
SciTegic.value.IntegerValue
42

@<SCITEGIC>MOL_PROPERTY
Delta U+W
SciTegic.value.DoubleValue
0.508

@<SCITEGIC>MOL_PROPERTY
U+W
SciTegic.value.DoubleValue
-11.270

@<SCITEGIC>MOL_PROPERTY
Grad RMS
SciTegic.value.DoubleValue
0.000000

@<SCITEGIC>MOL_PROPERTY
U
SciTegic.value.DoubleValue
46.486

@<SCITEGIC>MOL_PROPERTY
W
SciTegic.value.DoubleValue
-57.756

@<SCITEGIC>MOL_PROPERTY
W(PB)
SciTegic.value.DoubleValue
-59.705

@<SCITEGIC>MOL_PROPERTY
W(SA)
SciTegic.value.DoubleValue
1.949

@<SCITEGIC>MOL_PROPERTY
Valence
SciTegic.value.DoubleValue
1.806

@<SCITEGIC>MOL_PROPERTY
Coulomb
SciTegic.value.DoubleValue
44.248

@<SCITEGIC>MOL_PROPERTY
VdW
SciTegic.value.DoubleValue
0.433

@<SCITEGIC>MOL_PROPERTY
VdW6
SciTegic.value.DoubleValue
-4.089

@<SCITEGIC>MOL_PROPERTY
VdW12
SciTegic.value.DoubleValue
4.522

@<SCITEGIC>MOL_PROPERTY
Bond
SciTegic.value.DoubleValue
0.131

@<SCITEGIC>MOL_PROPERTY
Angle
SciTegic.value.DoubleValue
0.628

@<SCITEGIC>MOL_PROPERTY
Pdih
SciTegic.value.DoubleValue
1.047

@<SCITEGIC>MOL_PROPERTY
Idih
SciTegic.value.DoubleValue
0.000

@<SCITEGIC>MOL_PROPERTY
Tether
SciTegic.value.DoubleValue
0.000

@<TRIPOS>MOLECULE
guest-s11_confgen4.mol2 : confsearch ligand conformer 979
          20          19           1
SMALL
USER_CHARGES
 
@<TRIPOS>ATOM
       1    N1      23.040606   19.052633   21.637586 N.4        1 MOL1        -0.5919
       2    H1      23.077179   20.010353   21.274544 H          1 MOL1         0.3682
       3    H2      23.351507   19.088240   22.613499 H          1 MOL1         0.3682
       4    H3      23.742865   18.512205   21.121493 H          1 MOL1         0.3682
       5    C1      21.656844   18.449076   21.505288 C.3        1 MOL1         0.0252
       6    H4      21.698491   17.423399   21.881796 H          1 MOL1         0.0971
       7    H5      21.404197   18.414359   20.442058 H          1 MOL1         0.0971
       8    C2      20.577255   19.237199   22.268585 C.3        1 MOL1        -0.1369
       9    H6      20.850015   19.280838   23.330548 H          1 MOL1         0.0997
      10    H7      20.549797   20.270631   21.898347 H          1 MOL1         0.0997
      11    C3      19.182846   18.587823   22.104068 C.3        1 MOL1        -0.1329
      12    H8      19.197778   17.569420   22.516645 H          1 MOL1         0.0997
      13    H9      18.961030   18.483334   21.032797 H          1 MOL1         0.0997
      14    C4      18.041919   19.397915   22.766418 C.3        1 MOL1        -0.1305
      15    H10     18.008038   20.410048   22.339433 H          1 MOL1         0.0997
      16    H11     17.081899   18.926181   22.513898 H          1 MOL1         0.0997
      17    C5      18.163701   19.486614   24.304870 C.3        1 MOL1        -0.2320
      18    H12     19.050100   20.057765   24.607371 H          1 MOL1         0.1008
      19    H13     17.286383   19.990131   24.731175 H          1 MOL1         0.1008
      20    H14     18.227893   18.487252   24.754501 H          1 MOL1         0.1008
@<TRIPOS>BOND
    1     1     2    1
    2     1     3    1
    3     1     4    1
    4     1     5    1
    5     5     6    1
    6     5     7    1
    7     5     8    1
    8     8     9    1
    9     8    10    1
   10     8    11    1
   11    11    12    1
   12    11    13    1
   13    11    14    1
   14    14    15    1
   15    14    16    1
   16    14    17    1
   17    17    18    1
   18    17    19    1
   19    17    20    1
@<TRIPOS>SUBSTRUCTURE
       1 MOL1            1 RESIDUE      1      MOL     
@<SCITEGIC>MOL_PROPERTY
VConf Rank
SciTegic.value.IntegerValue
979

@<SCITEGIC>MOL_PROPERTY
Conf_Id
SciTegic.value.IntegerValue
41

@<SCITEGIC>MOL_PROPERTY
Delta U+W
SciTegic.value.DoubleValue
0.515

@<SCITEGIC>MOL_PROPERTY
U+W
SciTegic.value.DoubleValue
-11.263

@<SCITEGIC>MOL_PROPERTY
Grad RMS
SciTegic.value.DoubleValue
0.000000

@<SCITEGIC>MOL_PROPERTY
U
SciTegic.value.DoubleValue
46.486

@<SCITEGIC>MOL_PROPERTY
W
SciTegic.value.DoubleValue
-57.749

@<SCITEGIC>MOL_PROPERTY
W(PB)
SciTegic.value.DoubleValue
-59.685

@<SCITEGIC>MOL_PROPERTY
W(SA)
SciTegic.value.DoubleValue
1.936

@<SCITEGIC>MOL_PROPERTY
Valence
SciTegic.value.DoubleValue
1.806

@<SCITEGIC>MOL_PROPERTY
Coulomb
SciTegic.value.DoubleValue
44.248

@<SCITEGIC>MOL_PROPERTY
VdW
SciTegic.value.DoubleValue
0.433

@<SCITEGIC>MOL_PROPERTY
VdW6
SciTegic.value.DoubleValue
-4.089

@<SCITEGIC>MOL_PROPERTY
VdW12
SciTegic.value.DoubleValue
4.522

@<SCITEGIC>MOL_PROPERTY
Bond
SciTegic.value.DoubleValue
0.131

@<SCITEGIC>MOL_PROPERTY
Angle
SciTegic.value.DoubleValue
0.628

@<SCITEGIC>MOL_PROPERTY
Pdih
SciTegic.value.DoubleValue
1.047

@<SCITEGIC>MOL_PROPERTY
Idih
SciTegic.value.DoubleValue
0.000

@<SCITEGIC>MOL_PROPERTY
Tether
SciTegic.value.DoubleValue
0.000

@<TRIPOS>MOLECULE
guest-s11_confgen4.mol2 : confsearch ligand conformer 980
          20          19           1
SMALL
USER_CHARGES
 
@<TRIPOS>ATOM
       1    N1      21.629591   16.939863   21.645466 N.4        1 MOL1        -0.5919
       2    H1      21.754923   16.096699   21.075493 H          1 MOL1         0.3682
       3    H2      22.071059   17.711607   21.137081 H          1 MOL1         0.3682
       4    H3      22.165740   16.798942   22.507370 H          1 MOL1         0.3682
       5    C1      20.165323   17.214419   21.929546 C.3        1 MOL1         0.0252
       6    H4      19.755326   16.333655   22.431299 H          1 MOL1         0.0971
       7    H5      19.649349   17.331156   20.972684 H          1 MOL1         0.0971
       8    C2      19.921524   18.459050   22.805517 C.3        1 MOL1        -0.1369
       9    H6      18.852094   18.498552   23.047111 H          1 MOL1         0.0997
      10    H7      20.455095   18.346567   23.758585 H          1 MOL1         0.0997
      11    C3      20.349865   19.774915   22.108279 C.3        1 MOL1        -0.1329
      12    H8      19.795387   19.891973   21.166834 H          1 MOL1         0.0997
      13    H9      21.411880   19.715322   21.835918 H          1 MOL1         0.0997
      14    C4      20.146602   21.032935   22.987513 C.3        1 MOL1        -0.1305
      15    H10     20.710455   20.926639   23.924869 H          1 MOL1         0.0997
      16    H11     20.577779   21.899589   22.466997 H          1 MOL1         0.0997
      17    C5      18.663122   21.331330   23.303755 C.3        1 MOL1        -0.2320
      18    H12     18.218687   20.549876   23.932306 H          1 MOL1         0.1008
      19    H13     18.569764   22.281509   23.845412 H          1 MOL1         0.1008
      20    H14     18.070967   21.411152   22.382894 H          1 MOL1         0.1008
@<TRIPOS>BOND
    1     1     2    1
    2     1     3    1
    3     1     4    1
    4     1     5    1
    5     5     6    1
    6     5     7    1
    7     5     8    1
    8     8     9    1
    9     8    10    1
   10     8    11    1
   11    11    12    1
   12    11    13    1
   13    11    14    1
   14    14    15    1
   15    14    16    1
   16    14    17    1
   17    17    18    1
   18    17    19    1
   19    17    20    1
@<TRIPOS>SUBSTRUCTURE
       1 MOL1            1 RESIDUE      1      MOL     
@<SCITEGIC>MOL_PROPERTY
VConf Rank
SciTegic.value.IntegerValue
980

@<SCITEGIC>MOL_PROPERTY
Conf_Id
SciTegic.value.IntegerValue
33

@<SCITEGIC>MOL_PROPERTY
Delta U+W
SciTegic.value.DoubleValue
0.703

@<SCITEGIC>MOL_PROPERTY
U+W
SciTegic.value.DoubleValue
-11.075

@<SCITEGIC>MOL_PROPERTY
Grad RMS
SciTegic.value.DoubleValue
0.000000

@<SCITEGIC>MOL_PROPERTY
U
SciTegic.value.DoubleValue
47.080

@<SCITEGIC>MOL_PROPERTY
W
SciTegic.value.DoubleValue
-58.154

@<SCITEGIC>MOL_PROPERTY
W(PB)
SciTegic.value.DoubleValue
-60.053

@<SCITEGIC>MOL_PROPERTY
W(SA)
SciTegic.value.DoubleValue
1.899

@<SCITEGIC>MOL_PROPERTY
Valence
SciTegic.value.DoubleValue
1.943

@<SCITEGIC>MOL_PROPERTY
Coulomb
SciTegic.value.DoubleValue
44.572

@<SCITEGIC>MOL_PROPERTY
VdW
SciTegic.value.DoubleValue
0.565

@<SCITEGIC>MOL_PROPERTY
VdW6
SciTegic.value.DoubleValue
-4.575

@<SCITEGIC>MOL_PROPERTY
VdW12
SciTegic.value.DoubleValue
5.139

@<SCITEGIC>MOL_PROPERTY
Bond
SciTegic.value.DoubleValue
0.158

@<SCITEGIC>MOL_PROPERTY
Angle
SciTegic.value.DoubleValue
0.700

@<SCITEGIC>MOL_PROPERTY
Pdih
SciTegic.value.DoubleValue
1.085

@<SCITEGIC>MOL_PROPERTY
Idih
SciTegic.value.DoubleValue
0.000

@<SCITEGIC>MOL_PROPERTY
Tether
SciTegic.value.DoubleValue
0.000

@<TRIPOS>MOLECULE
guest-s11_confgen4.mol2 : confsearch ligand conformer 981
          20          19           1
SMALL
USER_CHARGES
 
@<TRIPOS>ATOM
       1    N1      19.716205   16.662497   23.646891 N.4        1 MOL1        -0.5919
       2    H1      19.668014   16.052993   24.470106 H          1 MOL1         0.3682
       3    H2      19.058244   16.284825   22.957947 H          1 MOL1         0.3682
       4    H3      20.656867   16.560157   23.254946 H          1 MOL1         0.3682
       5    C1      19.402960   18.104859   23.995645 C.3        1 MOL1         0.0252
       6    H4      20.123392   18.436955   24.748062 H          1 MOL1         0.0971
       7    H5      18.406845   18.127020   24.446051 H          1 MOL1         0.0971
       8    C2      19.436833   19.061314   22.787379 C.3        1 MOL1        -0.1369
       9    H6      18.725025   18.715445   22.026199 H          1 MOL1         0.0997
      10    H7      19.083918   20.044094   23.123834 H          1 MOL1         0.0997
      11    C3      20.851765   19.196073   22.170188 C.3        1 MOL1        -0.1329
      12    H8      21.214903   18.204731   21.868558 H          1 MOL1         0.0997
      13    H9      21.553684   19.563976   22.931388 H          1 MOL1         0.0997
      14    C4      20.898508   20.124778   20.932327 C.3        1 MOL1        -0.1305
      15    H10     21.904325   20.074294   20.492185 H          1 MOL1         0.0997
      16    H11     20.207936   19.753226   20.162311 H          1 MOL1         0.0997
      17    C5      20.571659   21.600679   21.255826 C.3        1 MOL1        -0.2320
      18    H12     21.228298   21.986879   22.046193 H          1 MOL1         0.1008
      19    H13     20.712557   22.228774   20.366673 H          1 MOL1         0.1008
      20    H14     19.531516   21.722165   21.582344 H          1 MOL1         0.1008
@<TRIPOS>BOND
    1     1     2    1
    2     1     3    1
    3     1     4    1
    4     1     5    1
    5     5     6    1
    6     5     7    1
    7     5     8    1
    8     8     9    1
    9     8    10    1
   10     8    11    1
   11    11    12    1
   12    11    13    1
   13    11    14    1
   14    14    15    1
   15    14    16    1
   16    14    17    1
   17    17    18    1
   18    17    19    1
   19    17    20    1
@<TRIPOS>SUBSTRUCTURE
       1 MOL1            1 RESIDUE      1      MOL     
@<SCITEGIC>MOL_PROPERTY
VConf Rank
SciTegic.value.IntegerValue
981

@<SCITEGIC>MOL_PROPERTY
Conf_Id
SciTegic.value.IntegerValue
24

@<SCITEGIC>MOL_PROPERTY
Delta U+W
SciTegic.value.DoubleValue
0.847

@<SCITEGIC>MOL_PROPERTY
U+W
SciTegic.value.DoubleValue
-10.931

@<SCITEGIC>MOL_PROPERTY
Grad RMS
SciTegic.value.DoubleValue
0.000000

@<SCITEGIC>MOL_PROPERTY
U
SciTegic.value.DoubleValue
47.080

@<SCITEGIC>MOL_PROPERTY
W
SciTegic.value.DoubleValue
-58.011

@<SCITEGIC>MOL_PROPERTY
W(PB)
SciTegic.value.DoubleValue
-59.914

@<SCITEGIC>MOL_PROPERTY
W(SA)
SciTegic.value.DoubleValue
1.903

@<SCITEGIC>MOL_PROPERTY
Valence
SciTegic.value.DoubleValue
1.943

@<SCITEGIC>MOL_PROPERTY
Coulomb
SciTegic.value.DoubleValue
44.572

@<SCITEGIC>MOL_PROPERTY
VdW
SciTegic.value.DoubleValue
0.565

@<SCITEGIC>MOL_PROPERTY
VdW6
SciTegic.value.DoubleValue
-4.575

@<SCITEGIC>MOL_PROPERTY
VdW12
SciTegic.value.DoubleValue
5.140

@<SCITEGIC>MOL_PROPERTY
Bond
SciTegic.value.DoubleValue
0.158

@<SCITEGIC>MOL_PROPERTY
Angle
SciTegic.value.DoubleValue
0.700

@<SCITEGIC>MOL_PROPERTY
Pdih
SciTegic.value.DoubleValue
1.085

@<SCITEGIC>MOL_PROPERTY
Idih
SciTegic.value.DoubleValue
0.000

@<SCITEGIC>MOL_PROPERTY
Tether
SciTegic.value.DoubleValue
0.000

@<TRIPOS>MOLECULE
guest-s11_confgen4.mol2 : confsearch ligand conformer 982
          20          19           1
SMALL
USER_CHARGES
 
@<TRIPOS>ATOM
       1    N1      20.771280   16.893658   21.158245 N.4        1 MOL1        -0.5919
       2    H1      21.632962   16.695767   20.638790 H          1 MOL1         0.3682
       3    H2      20.828086   16.371633   22.038293 H          1 MOL1         0.3682
       4    H3      19.999567   16.490153   20.617919 H          1 MOL1         0.3682
       5    C1      20.582958   18.379037   21.391721 C.3        1 MOL1         0.0252
       6    H4      20.560434   18.874246   20.417226 H          1 MOL1         0.0971
       7    H5      21.452670   18.745120   21.943597 H          1 MOL1         0.0971
       8    C2      19.296468   18.710906   22.171100 C.3        1 MOL1        -0.1369
       9    H6      18.433060   18.302700   21.629201 H          1 MOL1         0.0997
      10    H7      19.313911   18.206905   23.145847 H          1 MOL1         0.0997
      11    C3      19.089434   20.233828   22.365626 C.3        1 MOL1        -0.1329
      12    H8      18.152506   20.398599   22.915424 H          1 MOL1         0.0997
      13    H9      18.948769   20.703024   21.381979 H          1 MOL1         0.0997
      14    C4      20.244212   20.958740   23.103336 C.3        1 MOL1        -0.1305
      15    H10     21.169611   20.895391   22.514778 H          1 MOL1         0.0997
      16    H11     20.001370   22.028660   23.167993 H          1 MOL1         0.0997
      17    C5      20.497172   20.418785   24.529333 C.3        1 MOL1        -0.2320
      18    H12     21.257257   21.023832   25.040305 H          1 MOL1         0.1008
      19    H13     19.580673   20.452096   25.132571 H          1 MOL1         0.1008
      20    H14     20.858879   19.383210   24.509628 H          1 MOL1         0.1008
@<TRIPOS>BOND
    1     1     2    1
    2     1     3    1
    3     1     4    1
    4     1     5    1
    5     5     6    1
    6     5     7    1
    7     5     8    1
    8     8     9    1
    9     8    10    1
   10     8    11    1
   11    11    12    1
   12    11    13    1
   13    11    14    1
   14    14    15    1
   15    14    16    1
   16    14    17    1
   17    17    18    1
   18    17    19    1
   19    17    20    1
@<TRIPOS>SUBSTRUCTURE
       1 MOL1            1 RESIDUE      1      MOL     
@<SCITEGIC>MOL_PROPERTY
VConf Rank
SciTegic.value.IntegerValue
982

@<SCITEGIC>MOL_PROPERTY
Conf_Id
SciTegic.value.IntegerValue
64

@<SCITEGIC>MOL_PROPERTY
Delta U+W
SciTegic.value.DoubleValue
0.707

@<SCITEGIC>MOL_PROPERTY
U+W
SciTegic.value.DoubleValue
-11.070

@<SCITEGIC>MOL_PROPERTY
Grad RMS
SciTegic.value.DoubleValue
0.000000

@<SCITEGIC>MOL_PROPERTY
U
SciTegic.value.DoubleValue
47.077

@<SCITEGIC>MOL_PROPERTY
W
SciTegic.value.DoubleValue
-58.148

@<SCITEGIC>MOL_PROPERTY
W(PB)
SciTegic.value.DoubleValue
-60.054

@<SCITEGIC>MOL_PROPERTY
W(SA)
SciTegic.value.DoubleValue
1.906

@<SCITEGIC>MOL_PROPERTY
Valence
SciTegic.value.DoubleValue
2.039

@<SCITEGIC>MOL_PROPERTY
Coulomb
SciTegic.value.DoubleValue
44.655

@<SCITEGIC>MOL_PROPERTY
VdW
SciTegic.value.DoubleValue
0.383

@<SCITEGIC>MOL_PROPERTY
VdW6
SciTegic.value.DoubleValue
-4.912

@<SCITEGIC>MOL_PROPERTY
VdW12
SciTegic.value.DoubleValue
5.295

@<SCITEGIC>MOL_PROPERTY
Bond
SciTegic.value.DoubleValue
0.159

@<SCITEGIC>MOL_PROPERTY
Angle
SciTegic.value.DoubleValue
0.856

@<SCITEGIC>MOL_PROPERTY
Pdih
SciTegic.value.DoubleValue
1.024

@<SCITEGIC>MOL_PROPERTY
Idih
SciTegic.value.DoubleValue
0.000

@<SCITEGIC>MOL_PROPERTY
Tether
SciTegic.value.DoubleValue
0.000

@<TRIPOS>MOLECULE
guest-s11_confgen4.mol2 : confsearch ligand conformer 983
          20          19           1
SMALL
USER_CHARGES
 
@<TRIPOS>ATOM
       1    N1      21.017259   21.578052   23.230520 N.4        1 MOL1        -0.5919
       2    H1      21.825725   21.592344   23.860192 H          1 MOL1         0.3682
       3    H2      21.367079   21.770685   22.286729 H          1 MOL1         0.3682
       4    H3      20.421280   22.369723   23.494253 H          1 MOL1         0.3682
       5    C1      20.268953   20.262162   23.299780 C.3        1 MOL1         0.0252
       6    H4      19.407792   20.329930   22.629859 H          1 MOL1         0.0971
       7    H5      19.900907   20.135917   24.321535 H          1 MOL1         0.0971
       8    C2      21.136709   19.051134   22.908586 C.3        1 MOL1        -0.1369
       9    H6      21.514203   19.181186   21.886314 H          1 MOL1         0.0997
      10    H7      22.019690   19.016674   23.560442 H          1 MOL1         0.0997
      11    C3      20.376746   17.706245   23.025738 C.3        1 MOL1        -0.1329
      12    H8      20.116549   17.534372   24.079423 H          1 MOL1         0.0997
      13    H9      21.054633   16.888397   22.744924 H          1 MOL1         0.0997
      14    C4      19.086561   17.611077   22.171578 C.3        1 MOL1        -0.1305
      15    H10     18.623036   16.629862   22.345486 H          1 MOL1         0.0997
      16    H11     18.351995   18.354823   22.509261 H          1 MOL1         0.0997
      17    C5      19.338932   17.780676   20.656140 C.3        1 MOL1        -0.2320
      18    H12     20.086209   17.061115   20.297273 H          1 MOL1         0.1008
      19    H13     18.413011   17.612668   20.091031 H          1 MOL1         0.1008
      20    H14     19.691948   18.791592   20.417255 H          1 MOL1         0.1008
@<TRIPOS>BOND
    1     1     2    1
    2     1     3    1
    3     1     4    1
    4     1     5    1
    5     5     6    1
    6     5     7    1
    7     5     8    1
    8     8     9    1
    9     8    10    1
   10     8    11    1
   11    11    12    1
   12    11    13    1
   13    11    14    1
   14    14    15    1
   15    14    16    1
   16    14    17    1
   17    17    18    1
   18    17    19    1
   19    17    20    1
@<TRIPOS>SUBSTRUCTURE
       1 MOL1            1 RESIDUE      1      MOL     
@<SCITEGIC>MOL_PROPERTY
VConf Rank
SciTegic.value.IntegerValue
983

@<SCITEGIC>MOL_PROPERTY
Conf_Id
SciTegic.value.IntegerValue
22

@<SCITEGIC>MOL_PROPERTY
Delta U+W
SciTegic.value.DoubleValue
0.731

@<SCITEGIC>MOL_PROPERTY
U+W
SciTegic.value.DoubleValue
-11.047

@<SCITEGIC>MOL_PROPERTY
Grad RMS
SciTegic.value.DoubleValue
0.000000

@<SCITEGIC>MOL_PROPERTY
U
SciTegic.value.DoubleValue
47.078

@<SCITEGIC>MOL_PROPERTY
W
SciTegic.value.DoubleValue
-58.125

@<SCITEGIC>MOL_PROPERTY
W(PB)
SciTegic.value.DoubleValue
-60.031

@<SCITEGIC>MOL_PROPERTY
W(SA)
SciTegic.value.DoubleValue
1.906

@<SCITEGIC>MOL_PROPERTY
Valence
SciTegic.value.DoubleValue
2.039

@<SCITEGIC>MOL_PROPERTY
Coulomb
SciTegic.value.DoubleValue
44.655

@<SCITEGIC>MOL_PROPERTY
VdW
SciTegic.value.DoubleValue
0.383

@<SCITEGIC>MOL_PROPERTY
VdW6
SciTegic.value.DoubleValue
-4.913

@<SCITEGIC>MOL_PROPERTY
VdW12
SciTegic.value.DoubleValue
5.296

@<SCITEGIC>MOL_PROPERTY
Bond
SciTegic.value.DoubleValue
0.159

@<SCITEGIC>MOL_PROPERTY
Angle
SciTegic.value.DoubleValue
0.856

@<SCITEGIC>MOL_PROPERTY
Pdih
SciTegic.value.DoubleValue
1.024

@<SCITEGIC>MOL_PROPERTY
Idih
SciTegic.value.DoubleValue
0.000

@<SCITEGIC>MOL_PROPERTY
Tether
SciTegic.value.DoubleValue
0.000

@<TRIPOS>MOLECULE
guest-s11_confgen4.mol2 : confsearch ligand conformer 984
          20          19           1
SMALL
USER_CHARGES
 
@<TRIPOS>ATOM
       1    N1      22.125756   17.714718   23.729271 N.4        1 MOL1        -0.5919
       2    H1      22.391554   18.319812   24.512564 H          1 MOL1         0.3682
       3    H2      21.769142   16.841794   24.130694 H          1 MOL1         0.3682
       4    H3      22.989184   17.480298   23.228239 H          1 MOL1         0.3682
       5    C1      21.109443   18.377338   22.821167 C.3        1 MOL1         0.0252
       6    H4      20.893448   17.691351   21.997659 H          1 MOL1         0.0971
       7    H5      21.569572   19.279173   22.410994 H          1 MOL1         0.0971
       8    C2      19.802730   18.747199   23.545305 C.3        1 MOL1        -0.1369
       9    H6      19.415484   17.853826   24.053093 H          1 MOL1         0.0997
      10    H7      20.016415   19.482716   24.332158 H          1 MOL1         0.0997
      11    C3      18.697916   19.295512   22.606875 C.3        1 MOL1        -0.1329
      12    H8      17.791534   19.436673   23.211935 H          1 MOL1         0.0997
      13    H9      18.435303   18.542915   21.850580 H          1 MOL1         0.0997
      14    C4      19.032758   20.646895   21.923621 C.3        1 MOL1        -0.1305
      15    H10     18.090029   21.176949   21.727643 H          1 MOL1         0.0997
      16    H11     19.603060   21.289620   22.608750 H          1 MOL1         0.0997
      17    C5      19.780912   20.500526   20.577636 C.3        1 MOL1        -0.2320
      18    H12     20.776055   20.060719   20.700664 H          1 MOL1         0.1008
      19    H13     19.214444   19.871624   19.878637 H          1 MOL1         0.1008
      20    H14     19.913868   21.482952   20.106311 H          1 MOL1         0.1008
@<TRIPOS>BOND
    1     1     2    1
    2     1     3    1
    3     1     4    1
    4     1     5    1
    5     5     6    1
    6     5     7    1
    7     5     8    1
    8     8     9    1
    9     8    10    1
   10     8    11    1
   11    11    12    1
   12    11    13    1
   13    11    14    1
   14    14    15    1
   15    14    16    1
   16    14    17    1
   17    17    18    1
   18    17    19    1
   19    17    20    1
@<TRIPOS>SUBSTRUCTURE
       1 MOL1            1 RESIDUE      1      MOL     
@<SCITEGIC>MOL_PROPERTY
VConf Rank
SciTegic.value.IntegerValue
984

@<SCITEGIC>MOL_PROPERTY
Conf_Id
SciTegic.value.IntegerValue
61

@<SCITEGIC>MOL_PROPERTY
Delta U+W
SciTegic.value.DoubleValue
2.669

@<SCITEGIC>MOL_PROPERTY
U+W
SciTegic.value.DoubleValue
-9.108

@<SCITEGIC>MOL_PROPERTY
Grad RMS
SciTegic.value.DoubleValue
0.000000

@<SCITEGIC>MOL_PROPERTY
U
SciTegic.value.DoubleValue
48.916

@<SCITEGIC>MOL_PROPERTY
W
SciTegic.value.DoubleValue
-58.025

@<SCITEGIC>MOL_PROPERTY
W(PB)
SciTegic.value.DoubleValue
-59.935

@<SCITEGIC>MOL_PROPERTY
W(SA)
SciTegic.value.DoubleValue
1.911

@<SCITEGIC>MOL_PROPERTY
Valence
SciTegic.value.DoubleValue
3.785

@<SCITEGIC>MOL_PROPERTY
Coulomb
SciTegic.value.DoubleValue
44.716

@<SCITEGIC>MOL_PROPERTY
VdW
SciTegic.value.DoubleValue
0.415

@<SCITEGIC>MOL_PROPERTY
VdW6
SciTegic.value.DoubleValue
-4.836

@<SCITEGIC>MOL_PROPERTY
VdW12
SciTegic.value.DoubleValue
5.251

@<SCITEGIC>MOL_PROPERTY
Bond
SciTegic.value.DoubleValue
0.175

@<SCITEGIC>MOL_PROPERTY
Angle
SciTegic.value.DoubleValue
1.195

@<SCITEGIC>MOL_PROPERTY
Pdih
SciTegic.value.DoubleValue
2.415

@<SCITEGIC>MOL_PROPERTY
Idih
SciTegic.value.DoubleValue
0.000

@<SCITEGIC>MOL_PROPERTY
Tether
SciTegic.value.DoubleValue
0.000

@<TRIPOS>MOLECULE
guest-s11_confgen4.mol2 : confsearch ligand conformer 985
          20          19           1
SMALL
USER_CHARGES
 
@<TRIPOS>ATOM
       1    N1      22.137753   19.006589   21.304295 N.4        1 MOL1        -0.5919
       2    H1      22.907992   19.578909   20.942601 H          1 MOL1         0.3682
       3    H2      22.303136   18.048319   20.980769 H          1 MOL1         0.3682
       4    H3      21.281008   19.334753   20.851169 H          1 MOL1         0.3682
       5    C1      22.044204   19.081594   22.816312 C.3        1 MOL1         0.0252
       6    H4      21.926507   20.128992   23.106903 H          1 MOL1         0.0971
       7    H5      22.999727   18.726639   23.211969 H          1 MOL1         0.0971
       8    C2      20.905260   18.237502   23.426056 C.3        1 MOL1        -0.1369
       9    H6      20.855691   17.258503   22.931162 H          1 MOL1         0.0997
      10    H7      21.165864   18.032275   24.472879 H          1 MOL1         0.0997
      11    C3      19.514633   18.922802   23.409029 C.3        1 MOL1        -0.1329
      12    H8      19.568023   19.873030   23.958286 H          1 MOL1         0.0997
      13    H9      18.813503   18.286777   23.967033 H          1 MOL1         0.0997
      14    C4      18.941646   19.176064   21.994867 C.3        1 MOL1        -0.1305
      15    H10     19.546961   19.927703   21.472869 H          1 MOL1         0.0997
      16    H11     18.985215   18.251200   21.402692 H          1 MOL1         0.0997
      17    C5      17.482125   19.675385   22.053999 C.3        1 MOL1        -0.2320
      18    H12     17.093911   19.859408   21.043813 H          1 MOL1         0.1008
      19    H13     16.829678   18.934841   22.534760 H          1 MOL1         0.1008
      20    H14     17.408460   20.613745   22.619086 H          1 MOL1         0.1008
@<TRIPOS>BOND
    1     1     2    1
    2     1     3    1
    3     1     4    1
    4     1     5    1
    5     5     6    1
    6     5     7    1
    7     5     8    1
    8     8     9    1
    9     8    10    1
   10     8    11    1
   11    11    12    1
   12    11    13    1
   13    11    14    1
   14    14    15    1
   15    14    16    1
   16    14    17    1
   17    17    18    1
   18    17    19    1
   19    17    20    1
@<TRIPOS>SUBSTRUCTURE
       1 MOL1            1 RESIDUE      1      MOL     
@<SCITEGIC>MOL_PROPERTY
VConf Rank
SciTegic.value.IntegerValue
985

@<SCITEGIC>MOL_PROPERTY
Conf_Id
SciTegic.value.IntegerValue
69

@<SCITEGIC>MOL_PROPERTY
Delta U+W
SciTegic.value.DoubleValue
2.811

@<SCITEGIC>MOL_PROPERTY
U+W
SciTegic.value.DoubleValue
-8.967

@<SCITEGIC>MOL_PROPERTY
Grad RMS
SciTegic.value.DoubleValue
0.000000

@<SCITEGIC>MOL_PROPERTY
U
SciTegic.value.DoubleValue
49.216

@<SCITEGIC>MOL_PROPERTY
W
SciTegic.value.DoubleValue
-58.183

@<SCITEGIC>MOL_PROPERTY
W(PB)
SciTegic.value.DoubleValue
-60.064

@<SCITEGIC>MOL_PROPERTY
W(SA)
SciTegic.value.DoubleValue
1.881

@<SCITEGIC>MOL_PROPERTY
Valence
SciTegic.value.DoubleValue
2.929

@<SCITEGIC>MOL_PROPERTY
Coulomb
SciTegic.value.DoubleValue
46.006

@<SCITEGIC>MOL_PROPERTY
VdW
SciTegic.value.DoubleValue
0.281

@<SCITEGIC>MOL_PROPERTY
VdW6
SciTegic.value.DoubleValue
-4.909

@<SCITEGIC>MOL_PROPERTY
VdW12
SciTegic.value.DoubleValue
5.190

@<SCITEGIC>MOL_PROPERTY
Bond
SciTegic.value.DoubleValue
0.156

@<SCITEGIC>MOL_PROPERTY
Angle
SciTegic.value.DoubleValue
0.974

@<SCITEGIC>MOL_PROPERTY
Pdih
SciTegic.value.DoubleValue
1.799

@<SCITEGIC>MOL_PROPERTY
Idih
SciTegic.value.DoubleValue
0.000

@<SCITEGIC>MOL_PROPERTY
Tether
SciTegic.value.DoubleValue
0.000

@<TRIPOS>MOLECULE
guest-s11_confgen4.mol2 : confsearch ligand conformer 986
          20          19           1
SMALL
USER_CHARGES
 
@<TRIPOS>ATOM
       1    N1      21.784953   20.151277   23.604607 N.4        1 MOL1        -0.5919
       2    H1      21.406840   20.582136   22.757011 H          1 MOL1         0.3682
       3    H2      21.376646   20.646371   24.403651 H          1 MOL1         0.3682
       4    H3      22.791731   20.345855   23.618005 H          1 MOL1         0.3682
       5    C1      21.499802   18.662582   23.659791 C.3        1 MOL1         0.0252
       6    H4      21.947145   18.287240   24.584215 H          1 MOL1         0.0971
       7    H5      22.005364   18.179283   22.819452 H          1 MOL1         0.0971
       8    C2      19.999584   18.301120   23.646833 C.3        1 MOL1        -0.1369
       9    H6      19.893580   17.301291   24.088395 H          1 MOL1         0.0997
      10    H7      19.442759   18.981044   24.305212 H          1 MOL1         0.0997
      11    C3      19.356648   18.267346   22.236420 C.3        1 MOL1        -0.1329
      12    H8      18.329968   17.889067   22.337970 H          1 MOL1         0.0997
      13    H9      19.889289   17.539598   21.608613 H          1 MOL1         0.0997
      14    C4      19.315389   19.636125   21.517355 C.3        1 MOL1        -0.1305
      15    H10     18.880185   20.394980   22.182696 H          1 MOL1         0.0997
      16    H11     20.333563   19.962267   21.270772 H          1 MOL1         0.0997
      17    C5      18.491845   19.568559   20.213426 C.3        1 MOL1        -0.2320
      18    H12     17.451387   19.283422   20.416816 H          1 MOL1         0.1008
      19    H13     18.480476   20.544431   19.710838 H          1 MOL1         0.1008
      20    H14     18.916918   18.835389   19.515541 H          1 MOL1         0.1008
@<TRIPOS>BOND
    1     1     2    1
    2     1     3    1
    3     1     4    1
    4     1     5    1
    5     5     6    1
    6     5     7    1
    7     5     8    1
    8     8     9    1
    9     8    10    1
   10     8    11    1
   11    11    12    1
   12    11    13    1
   13    11    14    1
   14    14    15    1
   15    14    16    1
   16    14    17    1
   17    17    18    1
   18    17    19    1
   19    17    20    1
@<TRIPOS>SUBSTRUCTURE
       1 MOL1            1 RESIDUE      1      MOL     
@<SCITEGIC>MOL_PROPERTY
VConf Rank
SciTegic.value.IntegerValue
986

@<SCITEGIC>MOL_PROPERTY
Conf_Id
SciTegic.value.IntegerValue
26

@<SCITEGIC>MOL_PROPERTY
Delta U+W
SciTegic.value.DoubleValue
2.809

@<SCITEGIC>MOL_PROPERTY
U+W
SciTegic.value.DoubleValue
-8.969

@<SCITEGIC>MOL_PROPERTY
Grad RMS
SciTegic.value.DoubleValue
0.000000

@<SCITEGIC>MOL_PROPERTY
U
SciTegic.value.DoubleValue
49.216

@<SCITEGIC>MOL_PROPERTY
W
SciTegic.value.DoubleValue
-58.185

@<SCITEGIC>MOL_PROPERTY
W(PB)
SciTegic.value.DoubleValue
-60.088

@<SCITEGIC>MOL_PROPERTY
W(SA)
SciTegic.value.DoubleValue
1.903

@<SCITEGIC>MOL_PROPERTY
Valence
SciTegic.value.DoubleValue
2.929

@<SCITEGIC>MOL_PROPERTY
Coulomb
SciTegic.value.DoubleValue
46.006

@<SCITEGIC>MOL_PROPERTY
VdW
SciTegic.value.DoubleValue
0.281

@<SCITEGIC>MOL_PROPERTY
VdW6
SciTegic.value.DoubleValue
-4.909

@<SCITEGIC>MOL_PROPERTY
VdW12
SciTegic.value.DoubleValue
5.190

@<SCITEGIC>MOL_PROPERTY
Bond
SciTegic.value.DoubleValue
0.156

@<SCITEGIC>MOL_PROPERTY
Angle
SciTegic.value.DoubleValue
0.974

@<SCITEGIC>MOL_PROPERTY
Pdih
SciTegic.value.DoubleValue
1.799

@<SCITEGIC>MOL_PROPERTY
Idih
SciTegic.value.DoubleValue
0.000

@<SCITEGIC>MOL_PROPERTY
Tether
SciTegic.value.DoubleValue
0.000

@<TRIPOS>MOLECULE
guest-s11_confgen4.mol2 : confsearch ligand conformer 987
          20          19           1
SMALL
USER_CHARGES
 
@<TRIPOS>ATOM
       1    N1      21.829921   20.778918   21.839309 N.4        1 MOL1        -0.5919
       2    H1      22.315039   19.940956   22.173101 H          1 MOL1         0.3682
       3    H2      22.041115   20.873615   20.841077 H          1 MOL1         0.3682
       4    H3      22.257118   21.582139   22.312224 H          1 MOL1         0.3682
       5    C1      20.337349   20.702419   22.095000 C.3        1 MOL1         0.0252
       6    H4      19.891066   21.636930   21.744246 H          1 MOL1         0.0971
       7    H5      20.180392   20.636213   23.174775 H          1 MOL1         0.0971
       8    C2      19.649095   19.512585   21.395791 C.3        1 MOL1        -0.1369
       9    H6      18.567412   19.577487   21.569805 H          1 MOL1         0.0997
      10    H7      19.783790   19.607032   20.310169 H          1 MOL1         0.0997
      11    C3      20.168162   18.124780   21.855748 C.3        1 MOL1        -0.1329
      12    H8      21.210523   18.001234   21.532595 H          1 MOL1         0.0997
      13    H9      19.600482   17.343599   21.331633 H          1 MOL1         0.0997
      14    C4      20.082611   17.871911   23.382761 C.3        1 MOL1        -0.1305
      15    H10     20.493940   16.875486   23.596761 H          1 MOL1         0.0997
      16    H11     20.721392   18.583928   23.922656 H          1 MOL1         0.0997
      17    C5      18.641406   17.944640   23.936369 C.3        1 MOL1        -0.2320
      18    H12     17.977636   17.253110   23.401431 H          1 MOL1         0.1008
      19    H13     18.623615   17.671845   24.999454 H          1 MOL1         0.1008
      20    H14     18.226806   18.956566   23.848535 H          1 MOL1         0.1008
@<TRIPOS>BOND
    1     1     2    1
    2     1     3    1
    3     1     4    1
    4     1     5    1
    5     5     6    1
    6     5     7    1
    7     5     8    1
    8     8     9    1
    9     8    10    1
   10     8    11    1
   11    11    12    1
   12    11    13    1
   13    11    14    1
   14    14    15    1
   15    14    16    1
   16    14    17    1
   17    17    18    1
   18    17    19    1
   19    17    20    1
@<TRIPOS>SUBSTRUCTURE
       1 MOL1            1 RESIDUE      1      MOL     
@<SCITEGIC>MOL_PROPERTY
VConf Rank
SciTegic.value.IntegerValue
987

@<SCITEGIC>MOL_PROPERTY
Conf_Id
SciTegic.value.IntegerValue
2

@<SCITEGIC>MOL_PROPERTY
Delta U+W
SciTegic.value.DoubleValue
0.994

@<SCITEGIC>MOL_PROPERTY
U+W
SciTegic.value.DoubleValue
-10.784

@<SCITEGIC>MOL_PROPERTY
Grad RMS
SciTegic.value.DoubleValue
0.000000

@<SCITEGIC>MOL_PROPERTY
U
SciTegic.value.DoubleValue
47.562

@<SCITEGIC>MOL_PROPERTY
W
SciTegic.value.DoubleValue
-58.346

@<SCITEGIC>MOL_PROPERTY
W(PB)
SciTegic.value.DoubleValue
-60.221

@<SCITEGIC>MOL_PROPERTY
W(SA)
SciTegic.value.DoubleValue
1.875

@<SCITEGIC>MOL_PROPERTY
Valence
SciTegic.value.DoubleValue
2.149

@<SCITEGIC>MOL_PROPERTY
Coulomb
SciTegic.value.DoubleValue
45.034

@<SCITEGIC>MOL_PROPERTY
VdW
SciTegic.value.DoubleValue
0.378

@<SCITEGIC>MOL_PROPERTY
VdW6
SciTegic.value.DoubleValue
-5.599

@<SCITEGIC>MOL_PROPERTY
VdW12
SciTegic.value.DoubleValue
5.977

@<SCITEGIC>MOL_PROPERTY
Bond
SciTegic.value.DoubleValue
0.185

@<SCITEGIC>MOL_PROPERTY
Angle
SciTegic.value.DoubleValue
0.935

@<SCITEGIC>MOL_PROPERTY
Pdih
SciTegic.value.DoubleValue
1.028

@<SCITEGIC>MOL_PROPERTY
Idih
SciTegic.value.DoubleValue
0.000

@<SCITEGIC>MOL_PROPERTY
Tether
SciTegic.value.DoubleValue
0.000

@<TRIPOS>MOLECULE
guest-s11_confgen4.mol2 : confsearch ligand conformer 988
          20          19           1
SMALL
USER_CHARGES
 
@<TRIPOS>ATOM
       1    N1      19.603436   21.059708   21.189847 N.4        1 MOL1        -0.5919
       2    H1      18.609187   21.232616   21.012056 H          1 MOL1         0.3682
       3    H2      19.796879   21.364211   22.148386 H          1 MOL1         0.3682
       4    H3      20.130389   21.679162   20.565422 H          1 MOL1         0.3682
       5    C1      19.968853   19.603298   20.979286 C.3        1 MOL1         0.0252
       6    H4      21.042742   19.493913   21.151713 H          1 MOL1         0.0971
       7    H5      19.766651   19.357079   19.933343 H          1 MOL1         0.0971
       8    C2      19.194164   18.631776   21.892681 C.3        1 MOL1        -0.1369
       9    H6      18.119578   18.725403   21.687408 H          1 MOL1         0.0997
      10    H7      19.461846   17.602375   21.622102 H          1 MOL1         0.0997
      11    C3      19.445817   18.854246   23.407333 C.3        1 MOL1        -0.1329
      12    H8      18.882415   18.099981   23.973781 H          1 MOL1         0.0997
      13    H9      19.026672   19.824223   23.706781 H          1 MOL1         0.0997
      14    C4      20.934932   18.797440   23.834353 C.3        1 MOL1        -0.1305
      15    H10     21.500074   19.606553   23.352227 H          1 MOL1         0.0997
      16    H11     20.997388   18.988348   24.914864 H          1 MOL1         0.0997
      17    C5      21.608862   17.440433   23.529084 C.3        1 MOL1        -0.2320
      18    H12     21.673364   17.256621   22.449429 H          1 MOL1         0.1008
      19    H13     22.630912   17.420088   23.928942 H          1 MOL1         0.1008
      20    H14     21.053050   16.611800   23.986688 H          1 MOL1         0.1008
@<TRIPOS>BOND
    1     1     2    1
    2     1     3    1
    3     1     4    1
    4     1     5    1
    5     5     6    1
    6     5     7    1
    7     5     8    1
    8     8     9    1
    9     8    10    1
   10     8    11    1
   11    11    12    1
   12    11    13    1
   13    11    14    1
   14    14    15    1
   15    14    16    1
   16    14    17    1
   17    17    18    1
   18    17    19    1
   19    17    20    1
@<TRIPOS>SUBSTRUCTURE
       1 MOL1            1 RESIDUE      1      MOL     
@<SCITEGIC>MOL_PROPERTY
VConf Rank
SciTegic.value.IntegerValue
988

@<SCITEGIC>MOL_PROPERTY
Conf_Id
SciTegic.value.IntegerValue
1

@<SCITEGIC>MOL_PROPERTY
Delta U+W
SciTegic.value.DoubleValue
1.032

@<SCITEGIC>MOL_PROPERTY
U+W
SciTegic.value.DoubleValue
-10.746

@<SCITEGIC>MOL_PROPERTY
Grad RMS
SciTegic.value.DoubleValue
0.000000

@<SCITEGIC>MOL_PROPERTY
U
SciTegic.value.DoubleValue
47.562

@<SCITEGIC>MOL_PROPERTY
W
SciTegic.value.DoubleValue
-58.308

@<SCITEGIC>MOL_PROPERTY
W(PB)
SciTegic.value.DoubleValue
-60.184

@<SCITEGIC>MOL_PROPERTY
W(SA)
SciTegic.value.DoubleValue
1.877

@<SCITEGIC>MOL_PROPERTY
Valence
SciTegic.value.DoubleValue
2.149

@<SCITEGIC>MOL_PROPERTY
Coulomb
SciTegic.value.DoubleValue
45.035

@<SCITEGIC>MOL_PROPERTY
VdW
SciTegic.value.DoubleValue
0.378

@<SCITEGIC>MOL_PROPERTY
VdW6
SciTegic.value.DoubleValue
-5.599

@<SCITEGIC>MOL_PROPERTY
VdW12
SciTegic.value.DoubleValue
5.978

@<SCITEGIC>MOL_PROPERTY
Bond
SciTegic.value.DoubleValue
0.185

@<SCITEGIC>MOL_PROPERTY
Angle
SciTegic.value.DoubleValue
0.935

@<SCITEGIC>MOL_PROPERTY
Pdih
SciTegic.value.DoubleValue
1.028

@<SCITEGIC>MOL_PROPERTY
Idih
SciTegic.value.DoubleValue
0.000

@<SCITEGIC>MOL_PROPERTY
Tether
SciTegic.value.DoubleValue
0.000

@<TRIPOS>MOLECULE
guest-s11_confgen4.mol2 : confsearch ligand conformer 989
          20          19           1
SMALL
USER_CHARGES
 
@<TRIPOS>ATOM
       1    N1      20.796494   20.121223   24.518504 N.4        1 MOL1        -0.5919
       2    H1      20.142641   20.791561   24.934692 H          1 MOL1         0.3682
       3    H2      20.435152   19.183513   24.715520 H          1 MOL1         0.3682
       4    H3      21.682043   20.213706   25.027027 H          1 MOL1         0.3682
       5    C1      20.974441   20.355570   23.030830 C.3        1 MOL1         0.0252
       6    H4      21.702217   19.631550   22.661156 H          1 MOL1         0.0971
       7    H5      21.400377   21.354636   22.904464 H          1 MOL1         0.0971
       8    C2      19.662593   20.259191   22.223067 C.3        1 MOL1        -0.1369
       9    H6      18.956493   20.994260   22.631620 H          1 MOL1         0.0997
      10    H7      19.850570   20.567590   21.186161 H          1 MOL1         0.0997
      11    C3      18.992820   18.858637   22.236299 C.3        1 MOL1        -0.1329
      12    H8      17.924369   18.994668   22.018742 H          1 MOL1         0.0997
      13    H9      19.032420   18.419758   23.241555 H          1 MOL1         0.0997
      14    C4      19.552431   17.853266   21.197021 C.3        1 MOL1        -0.1305
      15    H10     18.942784   16.939740   21.238825 H          1 MOL1         0.0997
      16    H11     19.422592   18.257265   20.183261 H          1 MOL1         0.0997
      17    C5      21.032336   17.465172   21.409618 C.3        1 MOL1        -0.2320
      18    H12     21.220859   17.164560   22.448295 H          1 MOL1         0.1008
      19    H13     21.302365   16.620817   20.762255 H          1 MOL1         0.1008
      20    H14     21.703291   18.294076   21.155076 H          1 MOL1         0.1008
@<TRIPOS>BOND
    1     1     2    1
    2     1     3    1
    3     1     4    1
    4     1     5    1
    5     5     6    1
    6     5     7    1
    7     5     8    1
    8     8     9    1
    9     8    10    1
   10     8    11    1
   11    11    12    1
   12    11    13    1
   13    11    14    1
   14    14    15    1
   15    14    16    1
   16    14    17    1
   17    17    18    1
   18    17    19    1
   19    17    20    1
@<TRIPOS>SUBSTRUCTURE
       1 MOL1            1 RESIDUE      1      MOL     
@<SCITEGIC>MOL_PROPERTY
VConf Rank
SciTegic.value.IntegerValue
989

@<SCITEGIC>MOL_PROPERTY
Conf_Id
SciTegic.value.IntegerValue
80

@<SCITEGIC>MOL_PROPERTY
Delta U+W
SciTegic.value.DoubleValue
2.920

@<SCITEGIC>MOL_PROPERTY
U+W
SciTegic.value.DoubleValue
-8.857

@<SCITEGIC>MOL_PROPERTY
Grad RMS
SciTegic.value.DoubleValue
0.000000

@<SCITEGIC>MOL_PROPERTY
U
SciTegic.value.DoubleValue
49.434

@<SCITEGIC>MOL_PROPERTY
W
SciTegic.value.DoubleValue
-58.292

@<SCITEGIC>MOL_PROPERTY
W(PB)
SciTegic.value.DoubleValue
-60.170

@<SCITEGIC>MOL_PROPERTY
W(SA)
SciTegic.value.DoubleValue
1.879

@<SCITEGIC>MOL_PROPERTY
Valence
SciTegic.value.DoubleValue
3.798

@<SCITEGIC>MOL_PROPERTY
Coulomb
SciTegic.value.DoubleValue
45.253

@<SCITEGIC>MOL_PROPERTY
VdW
SciTegic.value.DoubleValue
0.384

@<SCITEGIC>MOL_PROPERTY
VdW6
SciTegic.value.DoubleValue
-5.595

@<SCITEGIC>MOL_PROPERTY
VdW12
SciTegic.value.DoubleValue
5.979

@<SCITEGIC>MOL_PROPERTY
Bond
SciTegic.value.DoubleValue
0.198

@<SCITEGIC>MOL_PROPERTY
Angle
SciTegic.value.DoubleValue
1.368

@<SCITEGIC>MOL_PROPERTY
Pdih
SciTegic.value.DoubleValue
2.231

@<SCITEGIC>MOL_PROPERTY
Idih
SciTegic.value.DoubleValue
0.000

@<SCITEGIC>MOL_PROPERTY
Tether
SciTegic.value.DoubleValue
0.000

@<TRIPOS>MOLECULE
guest-s11_confgen4.mol2 : confsearch ligand conformer 990
          20          19           1
SMALL
USER_CHARGES
 
@<TRIPOS>ATOM
       1    N1      19.222301   18.127359   24.315880 N.4        1 MOL1        -0.5919
       2    H1      18.737985   17.236926   24.165356 H          1 MOL1         0.3682
       3    H2      19.341231   18.234426   25.328667 H          1 MOL1         0.3682
       4    H3      18.589734   18.871841   24.008808 H          1 MOL1         0.3682
       5    C1      20.549853   18.178491   23.584616 C.3        1 MOL1         0.0252
       6    H4      21.181278   17.385550   23.994580 H          1 MOL1         0.0971
       7    H5      21.022555   19.135111   23.812536 H          1 MOL1         0.0971
       8    C2      20.428283   17.989480   22.057454 C.3        1 MOL1        -0.1369
       9    H6      21.432135   17.908153   21.620092 H          1 MOL1         0.0997
      10    H7      19.940719   17.023232   21.871807 H          1 MOL1         0.0997
      11    C3      19.630611   19.102843   21.326381 C.3        1 MOL1        -0.1329
      12    H8      18.737588   19.380513   21.900949 H          1 MOL1         0.0997
      13    H9      19.252751   18.682425   20.384100 H          1 MOL1         0.0997
      14    C4      20.448196   20.371732   20.972093 C.3        1 MOL1        -0.1305
      15    H10     21.287758   20.100761   20.316737 H          1 MOL1         0.0997
      16    H11     19.806915   21.040585   20.381041 H          1 MOL1         0.0997
      17    C5      20.981010   21.155118   22.192070 C.3        1 MOL1        -0.2320
      18    H12     21.796668   20.615839   22.687986 H          1 MOL1         0.1008
      19    H13     21.381691   22.127065   21.876311 H          1 MOL1         0.1008
      20    H14     20.185267   21.342796   22.924416 H          1 MOL1         0.1008
@<TRIPOS>BOND
    1     1     2    1
    2     1     3    1
    3     1     4    1
    4     1     5    1
    5     5     6    1
    6     5     7    1
    7     5     8    1
    8     8     9    1
    9     8    10    1
   10     8    11    1
   11    11    12    1
   12    11    13    1
   13    11    14    1
   14    14    15    1
   15    14    16    1
   16    14    17    1
   17    17    18    1
   18    17    19    1
   19    17    20    1
@<TRIPOS>SUBSTRUCTURE
       1 MOL1            1 RESIDUE      1      MOL     
@<SCITEGIC>MOL_PROPERTY
VConf Rank
SciTegic.value.IntegerValue
990

@<SCITEGIC>MOL_PROPERTY
Conf_Id
SciTegic.value.IntegerValue
65

@<SCITEGIC>MOL_PROPERTY
Delta U+W
SciTegic.value.DoubleValue
2.949

@<SCITEGIC>MOL_PROPERTY
U+W
SciTegic.value.DoubleValue
-8.829

@<SCITEGIC>MOL_PROPERTY
Grad RMS
SciTegic.value.DoubleValue
0.000000

@<SCITEGIC>MOL_PROPERTY
U
SciTegic.value.DoubleValue
49.435

@<SCITEGIC>MOL_PROPERTY
W
SciTegic.value.DoubleValue
-58.263

@<SCITEGIC>MOL_PROPERTY
W(PB)
SciTegic.value.DoubleValue
-60.125

@<SCITEGIC>MOL_PROPERTY
W(SA)
SciTegic.value.DoubleValue
1.862

@<SCITEGIC>MOL_PROPERTY
Valence
SciTegic.value.DoubleValue
3.797

@<SCITEGIC>MOL_PROPERTY
Coulomb
SciTegic.value.DoubleValue
45.253

@<SCITEGIC>MOL_PROPERTY
VdW
SciTegic.value.DoubleValue
0.384

@<SCITEGIC>MOL_PROPERTY
VdW6
SciTegic.value.DoubleValue
-5.596

@<SCITEGIC>MOL_PROPERTY
VdW12
SciTegic.value.DoubleValue
5.980

@<SCITEGIC>MOL_PROPERTY
Bond
SciTegic.value.DoubleValue
0.198

@<SCITEGIC>MOL_PROPERTY
Angle
SciTegic.value.DoubleValue
1.369

@<SCITEGIC>MOL_PROPERTY
Pdih
SciTegic.value.DoubleValue
2.230

@<SCITEGIC>MOL_PROPERTY
Idih
SciTegic.value.DoubleValue
0.000

@<SCITEGIC>MOL_PROPERTY
Tether
SciTegic.value.DoubleValue
0.000

@<TRIPOS>MOLECULE
guest-s11_confgen4.mol2 : confsearch ligand conformer 991
          20          19           1
SMALL
USER_CHARGES
 
@<TRIPOS>ATOM
       1    N1      19.681270   20.654427   21.157684 N.4        1 MOL1        -0.5919
       2    H1      19.022997   21.436809   21.078709 H          1 MOL1         0.3682
       3    H2      20.266671   20.829038   21.980205 H          1 MOL1         0.3682
       4    H3      20.291351   20.694102   20.335107 H          1 MOL1         0.3682
       5    C1      18.963846   19.322534   21.262180 C.3        1 MOL1         0.0252
       6    H4      18.366452   19.209353   20.353428 H          1 MOL1         0.0971
       7    H5      18.280608   19.358114   22.114894 H          1 MOL1         0.0971
       8    C2      19.908370   18.110970   21.397811 C.3        1 MOL1        -0.1369
       9    H6      19.362968   17.222588   21.052665 H          1 MOL1         0.0997
      10    H7      20.758684   18.223866   20.712225 H          1 MOL1         0.0997
      11    C3      20.415300   17.825503   22.837044 C.3        1 MOL1        -0.1329
      12    H8      21.026304   16.913136   22.794804 H          1 MOL1         0.0997
      13    H9      19.567058   17.580020   23.491024 H          1 MOL1         0.0997
      14    C4      21.272518   18.947517   23.476404 C.3        1 MOL1        -0.1305
      15    H10     22.052348   18.482180   24.095746 H          1 MOL1         0.0997
      16    H11     21.808880   19.510678   22.700886 H          1 MOL1         0.0997
      17    C5      20.453055   19.896529   24.382867 C.3        1 MOL1        -0.2320
      18    H12     19.606059   20.350771   23.857645 H          1 MOL1         0.1008
      19    H13     20.050111   19.352283   25.247016 H          1 MOL1         0.1008
      20    H14     21.086577   20.705798   24.768761 H          1 MOL1         0.1008
@<TRIPOS>BOND
    1     1     2    1
    2     1     3    1
    3     1     4    1
    4     1     5    1
    5     5     6    1
    6     5     7    1
    7     5     8    1
    8     8     9    1
    9     8    10    1
   10     8    11    1
   11    11    12    1
   12    11    13    1
   13    11    14    1
   14    14    15    1
   15    14    16    1
   16    14    17    1
   17    17    18    1
   18    17    19    1
   19    17    20    1
@<TRIPOS>SUBSTRUCTURE
       1 MOL1            1 RESIDUE      1      MOL     
@<SCITEGIC>MOL_PROPERTY
VConf Rank
SciTegic.value.IntegerValue
991

@<SCITEGIC>MOL_PROPERTY
Conf_Id
SciTegic.value.IntegerValue
77

@<SCITEGIC>MOL_PROPERTY
Delta U+W
SciTegic.value.DoubleValue
5.366

@<SCITEGIC>MOL_PROPERTY
U+W
SciTegic.value.DoubleValue
-6.412

@<SCITEGIC>MOL_PROPERTY
Grad RMS
SciTegic.value.DoubleValue
0.000000

@<SCITEGIC>MOL_PROPERTY
U
SciTegic.value.DoubleValue
51.542

@<SCITEGIC>MOL_PROPERTY
W
SciTegic.value.DoubleValue
-57.954

@<SCITEGIC>MOL_PROPERTY
W(PB)
SciTegic.value.DoubleValue
-59.811

@<SCITEGIC>MOL_PROPERTY
W(SA)
SciTegic.value.DoubleValue
1.857

@<SCITEGIC>MOL_PROPERTY
Valence
SciTegic.value.DoubleValue
5.347

@<SCITEGIC>MOL_PROPERTY
Coulomb
SciTegic.value.DoubleValue
45.870

@<SCITEGIC>MOL_PROPERTY
VdW
SciTegic.value.DoubleValue
0.325

@<SCITEGIC>MOL_PROPERTY
VdW6
SciTegic.value.DoubleValue
-6.161

@<SCITEGIC>MOL_PROPERTY
VdW12
SciTegic.value.DoubleValue
6.486

@<SCITEGIC>MOL_PROPERTY
Bond
SciTegic.value.DoubleValue
0.201

@<SCITEGIC>MOL_PROPERTY
Angle
SciTegic.value.DoubleValue
1.484

@<SCITEGIC>MOL_PROPERTY
Pdih
SciTegic.value.DoubleValue
3.662

@<SCITEGIC>MOL_PROPERTY
Idih
SciTegic.value.DoubleValue
0.000

@<SCITEGIC>MOL_PROPERTY
Tether
SciTegic.value.DoubleValue
0.000

@<TRIPOS>MOLECULE
guest-s11_confgen4.mol2 : confsearch ligand conformer 992
          20          19           1
SMALL
USER_CHARGES
 
@<TRIPOS>ATOM
       1    N1      22.046758   19.484266   22.999051 N.4        1 MOL1        -0.5919
       2    H1      22.152588   20.387600   23.471485 H          1 MOL1         0.3682
       3    H2      21.435597   18.904778   23.582492 H          1 MOL1         0.3682
       4    H3      22.971877   19.041806   22.990986 H          1 MOL1         0.3682
       5    C1      21.486075   19.643911   21.599155 C.3        1 MOL1         0.0252
       6    H4      21.455750   18.662031   21.119369 H          1 MOL1         0.0971
       7    H5      22.188243   20.271367   21.043477 H          1 MOL1         0.0971
       8    C2      20.087500   20.292295   21.554479 C.3        1 MOL1        -0.1369
       9    H6      20.043717   21.130902   22.262031 H          1 MOL1         0.0997
      10    H7      19.957017   20.735521   20.558318 H          1 MOL1         0.0997
      11    C3      18.900682   19.322202   21.799925 C.3        1 MOL1        -0.1329
      12    H8      18.869616   18.560698   21.008336 H          1 MOL1         0.0997
      13    H9      17.974097   19.901740   21.685464 H          1 MOL1         0.0997
      14    C4      18.872394   18.642868   23.192845 C.3        1 MOL1        -0.1305
      15    H10     19.347922   19.287198   23.944493 H          1 MOL1         0.0997
      16    H11     17.825263   18.541142   23.511323 H          1 MOL1         0.0997
      17    C5      19.505574   17.231166   23.193426 C.3        1 MOL1        -0.2320
      18    H12     19.514363   16.811459   24.207797 H          1 MOL1         0.1008
      19    H13     18.926067   16.548073   22.558699 H          1 MOL1         0.1008
      20    H14     20.534774   17.232848   22.818809 H          1 MOL1         0.1008
@<TRIPOS>BOND
    1     1     2    1
    2     1     3    1
    3     1     4    1
    4     1     5    1
    5     5     6    1
    6     5     7    1
    7     5     8    1
    8     8     9    1
    9     8    10    1
   10     8    11    1
   11    11    12    1
   12    11    13    1
   13    11    14    1
   14    14    15    1
   15    14    16    1
   16    14    17    1
   17    17    18    1
   18    17    19    1
   19    17    20    1
@<TRIPOS>SUBSTRUCTURE
       1 MOL1            1 RESIDUE      1      MOL     
@<SCITEGIC>MOL_PROPERTY
VConf Rank
SciTegic.value.IntegerValue
992

@<SCITEGIC>MOL_PROPERTY
Conf_Id
SciTegic.value.IntegerValue
67

@<SCITEGIC>MOL_PROPERTY
Delta U+W
SciTegic.value.DoubleValue
5.353

@<SCITEGIC>MOL_PROPERTY
U+W
SciTegic.value.DoubleValue
-6.425

@<SCITEGIC>MOL_PROPERTY
Grad RMS
SciTegic.value.DoubleValue
0.000000

@<SCITEGIC>MOL_PROPERTY
U
SciTegic.value.DoubleValue
51.541

@<SCITEGIC>MOL_PROPERTY
W
SciTegic.value.DoubleValue
-57.966

@<SCITEGIC>MOL_PROPERTY
W(PB)
SciTegic.value.DoubleValue
-59.821

@<SCITEGIC>MOL_PROPERTY
W(SA)
SciTegic.value.DoubleValue
1.855

@<SCITEGIC>MOL_PROPERTY
Valence
SciTegic.value.DoubleValue
5.347

@<SCITEGIC>MOL_PROPERTY
Coulomb
SciTegic.value.DoubleValue
45.870

@<SCITEGIC>MOL_PROPERTY
VdW
SciTegic.value.DoubleValue
0.325

@<SCITEGIC>MOL_PROPERTY
VdW6
SciTegic.value.DoubleValue
-6.161

@<SCITEGIC>MOL_PROPERTY
VdW12
SciTegic.value.DoubleValue
6.486

@<SCITEGIC>MOL_PROPERTY
Bond
SciTegic.value.DoubleValue
0.201

@<SCITEGIC>MOL_PROPERTY
Angle
SciTegic.value.DoubleValue
1.485

@<SCITEGIC>MOL_PROPERTY
Pdih
SciTegic.value.DoubleValue
3.662

@<SCITEGIC>MOL_PROPERTY
Idih
SciTegic.value.DoubleValue
0.000

@<SCITEGIC>MOL_PROPERTY
Tether
SciTegic.value.DoubleValue
0.000

