VeraChem MOL file


 26 25  0  0  0  0  0  0  0  0999 V2000     
   19.9837   18.6238   26.4861 N   0  3  0  0  0  0  0  0  0  0  0  0
   20.8629   18.0855   26.5332 H   0  0  0  0  0  0  0  0  0  0  0  0
   19.2304   17.9186   26.4753 H   0  0  0  0  0  0  0  0  0  0  0  0
   19.9442   19.4507   25.2166 C   0  0  0  0  0  0  0  0  0  0  0  0
   20.7598   20.1768   25.2639 H   0  0  0  0  0  0  0  0  0  0  0  0
   18.9976   19.9967   25.2014 H   0  0  0  0  0  0  0  0  0  0  0  0
   20.0759   18.6065   23.9359 C   0  0  0  0  0  0  0  0  0  0  0  0
   21.0206   18.0471   23.9630 H   0  0  0  0  0  0  0  0  0  0  0  0
   19.2643   17.8676   23.9008 H   0  0  0  0  0  0  0  0  0  0  0  0
   20.0305   19.4900   22.6695 C   0  0  0  0  0  0  0  0  0  0  0  0
   20.8407   20.2315   22.7111 H   0  0  0  0  0  0  0  0  0  0  0  0
   19.0865   20.0523   22.6490 H   0  0  0  0  0  0  0  0  0  0  0  0
   20.1618   18.6528   21.3767 C   0  0  0  0  0  0  0  0  0  0  0  0
   21.1058   18.0907   21.3970 H   0  0  0  0  0  0  0  0  0  0  0  0
   19.3518   17.9115   21.3349 H   0  0  0  0  0  0  0  0  0  0  0  0
   20.1163   19.5367   20.1103 C   0  0  0  0  0  0  0  0  0  0  0  0
   20.9265   20.2786   20.1461 H   0  0  0  0  0  0  0  0  0  0  0  0
   19.1726   20.0995   20.0840 H   0  0  0  0  0  0  0  0  0  0  0  0
   20.2476   18.6974   18.8214 C   0  0  0  0  0  0  0  0  0  0  0  0
   21.1984   18.1489   18.8025 H   0  0  0  0  0  0  0  0  0  0  0  0
   20.2132   19.3421   17.9337 H   0  0  0  0  0  0  0  0  0  0  0  0
   19.4308   17.9684   18.7399 H   0  0  0  0  0  0  0  0  0  0  0  0
   19.8478   19.5320   27.7004 C   0  0  0  0  0  0  0  0  0  0  0  0
   20.6733   20.2472   27.7083 H   0  0  0  0  0  0  0  0  0  0  0  0
   18.8963   20.0655   27.6453 H   0  0  0  0  0  0  0  0  0  0  0  0
   19.8778   18.9241   28.6075 H   0  0  0  0  0  0  0  0  0  0  0  0
  1  2  1  0  0  0  0
  1  3  1  0  0  0  0
  1  4  1  0  0  0  0
  4  5  1  0  0  0  0
  4  6  1  0  0  0  0
  4  7  1  0  0  0  0
  7  8  1  0  0  0  0
  7  9  1  0  0  0  0
  7 10  1  0  0  0  0
 10 11  1  0  0  0  0
 10 12  1  0  0  0  0
 10 13  1  0  0  0  0
 13 14  1  0  0  0  0
 13 15  1  0  0  0  0
 13 16  1  0  0  0  0
 16 17  1  0  0  0  0
 16 18  1  0  0  0  0
 16 19  1  0  0  0  0
 19 20  1  0  0  0  0
 19 21  1  0  0  0  0
 19 22  1  0  0  0  0
  1 23  1  0  0  0  0
 23 24  1  0  0  0  0
 23 25  1  0  0  0  0
 23 26  1  0  0  0  0
M  END
> <VM2 Rank>
1

> <Conf_Id>
906

> <Probability>
7.12

> <Sum Probability>
7.12

> <Delta G>
0.000

> <G>
75.466

> <E>
43.304

> <-TS>
32.163

> <U+W>
21.842

> <U>
70.358

> <W>
-48.515

> <W(PB)>
-50.856

> <W(SA)>
2.341

> <Valence>
1.714

> <Coulomb>
68.480

> <VdW>
0.163

> <VdW6>
-5.268

> <VdW12>
5.431

> <Bond>
0.126

> <Angle>
0.350

> <Pdih>
1.238

> <Idih>
0.000

> <Tether>
0.000

$$$$
VeraChem MOL file


 26 25  0  0  0  0  0  0  0  0999 V2000     
   20.3923   19.0035   26.6222 N   0  3  0  0  0  0  0  0  0  0  0  0
   20.8630   19.5626   27.3515 H   0  0  0  0  0  0  0  0  0  0  0  0
   20.8761   18.0923   26.6321 H   0  0  0  0  0  0  0  0  0  0  0  0
   20.5689   19.6776   25.2718 C   0  0  0  0  0  0  0  0  0  0  0  0
   21.6302   19.9156   25.1643 H   0  0  0  0  0  0  0  0  0  0  0  0
   20.0109   20.6171   25.2891 H   0  0  0  0  0  0  0  0  0  0  0  0
   20.1225   18.8244   24.0671 C   0  0  0  0  0  0  0  0  0  0  0  0
   20.6519   17.8626   24.0860 H   0  0  0  0  0  0  0  0  0  0  0  0
   19.0502   18.6036   24.1455 H   0  0  0  0  0  0  0  0  0  0  0  0
   20.4032   19.5463   22.7305 C   0  0  0  0  0  0  0  0  0  0  0  0
   21.4766   19.7692   22.6529 H   0  0  0  0  0  0  0  0  0  0  0  0
   19.8770   20.5111   22.7182 H   0  0  0  0  0  0  0  0  0  0  0  0
   19.9615   18.7009   21.5141 C   0  0  0  0  0  0  0  0  0  0  0  0
   20.4874   17.7362   21.5265 H   0  0  0  0  0  0  0  0  0  0  0  0
   18.8882   18.4783   21.5912 H   0  0  0  0  0  0  0  0  0  0  0  0
   20.2425   19.4231   20.1774 C   0  0  0  0  0  0  0  0  0  0  0  0
   21.3156   19.6458   20.0942 H   0  0  0  0  0  0  0  0  0  0  0  0
   19.7166   20.3880   20.1590 H   0  0  0  0  0  0  0  0  0  0  0  0
   19.8002   18.5760   18.9651 C   0  0  0  0  0  0  0  0  0  0  0  0
   20.3349   17.6176   18.9368 H   0  0  0  0  0  0  0  0  0  0  0  0
   20.0077   19.1051   18.0260 H   0  0  0  0  0  0  0  0  0  0  0  0
   18.7233   18.3657   19.0021 H   0  0  0  0  0  0  0  0  0  0  0  0
   18.9169   18.8381   26.9688 C   0  0  0  0  0  0  0  0  0  0  0  0
   18.4413   18.1921   26.2282 H   0  0  0  0  0  0  0  0  0  0  0  0
   18.8313   18.3855   27.9593 H   0  0  0  0  0  0  0  0  0  0  0  0
   18.4363   19.8188   26.9690 H   0  0  0  0  0  0  0  0  0  0  0  0
  1  2  1  0  0  0  0
  1  3  1  0  0  0  0
  1  4  1  0  0  0  0
  4  5  1  0  0  0  0
  4  6  1  0  0  0  0
  4  7  1  0  0  0  0
  7  8  1  0  0  0  0
  7  9  1  0  0  0  0
  7 10  1  0  0  0  0
 10 11  1  0  0  0  0
 10 12  1  0  0  0  0
 10 13  1  0  0  0  0
 13 14  1  0  0  0  0
 13 15  1  0  0  0  0
 13 16  1  0  0  0  0
 16 17  1  0  0  0  0
 16 18  1  0  0  0  0
 16 19  1  0  0  0  0
 19 20  1  0  0  0  0
 19 21  1  0  0  0  0
 19 22  1  0  0  0  0
  1 23  1  0  0  0  0
 23 24  1  0  0  0  0
 23 25  1  0  0  0  0
 23 26  1  0  0  0  0
M  END
> <VM2 Rank>
2

> <Conf_Id>
994

> <Probability>
4.37

> <Sum Probability>
11.48

> <Delta G>
0.291

> <G>
75.757

> <E>
43.423

> <-TS>
32.334

> <U+W>
21.962

> <U>
70.745

> <W>
-48.784

> <W(PB)>
-51.113

> <W(SA)>
2.329

> <Valence>
1.993

> <Coulomb>
68.323

> <VdW>
0.429

> <VdW6>
-5.973

> <VdW12>
6.402

> <Bond>
0.161

> <Angle>
0.472

> <Pdih>
1.360

> <Idih>
0.000

> <Tether>
0.000

$$$$
VeraChem MOL file


 26 25  0  0  0  0  0  0  0  0999 V2000     
   19.4984   18.9124   26.5906 N   0  3  0  0  0  0  0  0  0  0  0  0
   19.2086   17.9224   26.5732 H   0  0  0  0  0  0  0  0  0  0  0  0
   18.8748   19.3601   27.2811 H   0  0  0  0  0  0  0  0  0  0  0  0
   19.2845   19.5466   25.2263 C   0  0  0  0  0  0  0  0  0  0  0  0
   19.6389   20.5793   25.2758 H   0  0  0  0  0  0  0  0  0  0  0  0
   18.2071   19.5665   25.0431 H   0  0  0  0  0  0  0  0  0  0  0  0
   19.9769   18.8096   24.0619 C   0  0  0  0  0  0  0  0  0  0  0  0
   21.0636   18.8090   24.2168 H   0  0  0  0  0  0  0  0  0  0  0  0
   19.6525   17.7606   24.0507 H   0  0  0  0  0  0  0  0  0  0  0  0
   19.6506   19.4695   22.7038 C   0  0  0  0  0  0  0  0  0  0  0  0
   19.9709   20.5206   22.7215 H   0  0  0  0  0  0  0  0  0  0  0  0
   18.5625   19.4716   22.5497 H   0  0  0  0  0  0  0  0  0  0  0  0
   20.3379   18.7393   21.5274 C   0  0  0  0  0  0  0  0  0  0  0  0
   21.4260   18.7374   21.6812 H   0  0  0  0  0  0  0  0  0  0  0  0
   20.0180   17.6882   21.5099 H   0  0  0  0  0  0  0  0  0  0  0  0
   20.0113   19.3995   20.1692 C   0  0  0  0  0  0  0  0  0  0  0  0
   20.3316   20.4508   20.1809 H   0  0  0  0  0  0  0  0  0  0  0  0
   18.9239   19.4015   20.0094 H   0  0  0  0  0  0  0  0  0  0  0  0
   20.6995   18.6678   18.9970 C   0  0  0  0  0  0  0  0  0  0  0  0
   21.7913   18.6791   19.1109 H   0  0  0  0  0  0  0  0  0  0  0  0
   20.4557   19.1508   18.0419 H   0  0  0  0  0  0  0  0  0  0  0  0
   20.3727   17.6214   18.9382 H   0  0  0  0  0  0  0  0  0  0  0  0
   20.9489   19.0453   27.0407 C   0  0  0  0  0  0  0  0  0  0  0  0
   21.2208   20.1027   27.0674 H   0  0  0  0  0  0  0  0  0  0  0  0
   21.0544   18.6123   28.0380 H   0  0  0  0  0  0  0  0  0  0  0  0
   21.5955   18.5136   26.3398 H   0  0  0  0  0  0  0  0  0  0  0  0
  1  2  1  0  0  0  0
  1  3  1  0  0  0  0
  1  4  1  0  0  0  0
  4  5  1  0  0  0  0
  4  6  1  0  0  0  0
  4  7  1  0  0  0  0
  7  8  1  0  0  0  0
  7  9  1  0  0  0  0
  7 10  1  0  0  0  0
 10 11  1  0  0  0  0
 10 12  1  0  0  0  0
 10 13  1  0  0  0  0
 13 14  1  0  0  0  0
 13 15  1  0  0  0  0
 13 16  1  0  0  0  0
 16 17  1  0  0  0  0
 16 18  1  0  0  0  0
 16 19  1  0  0  0  0
 19 20  1  0  0  0  0
 19 21  1  0  0  0  0
 19 22  1  0  0  0  0
  1 23  1  0  0  0  0
 23 24  1  0  0  0  0
 23 25  1  0  0  0  0
 23 26  1  0  0  0  0
M  END
> <VM2 Rank>
3

> <Conf_Id>
37

> <Probability>
4.33

> <Sum Probability>
15.81

> <Delta G>
0.296

> <G>
75.762

> <E>
43.429

> <-TS>
32.333

> <U+W>
21.967

> <U>
70.745

> <W>
-48.778

> <W(PB)>
-51.115

> <W(SA)>
2.337

> <Valence>
1.993

> <Coulomb>
68.323

> <VdW>
0.429

> <VdW6>
-5.973

> <VdW12>
6.403

> <Bond>
0.161

> <Angle>
0.472

> <Pdih>
1.360

> <Idih>
0.000

> <Tether>
0.000

$$$$
VeraChem MOL file


 26 25  0  0  0  0  0  0  0  0999 V2000     
   20.5559   19.2936   25.9475 N   0  3  0  0  0  0  0  0  0  0  0  0
   20.9608   20.0234   25.3420 H   0  0  0  0  0  0  0  0  0  0  0  0
   21.2649   18.5452   25.9906 H   0  0  0  0  0  0  0  0  0  0  0  0
   19.2732   18.7626   25.3370 C   0  0  0  0  0  0  0  0  0  0  0  0
   18.5526   19.5835   25.2990 H   0  0  0  0  0  0  0  0  0  0  0  0
   18.8812   17.9955   26.0097 H   0  0  0  0  0  0  0  0  0  0  0  0
   19.4518   18.1635   23.9280 C   0  0  0  0  0  0  0  0  0  0  0  0
   20.1814   17.3438   23.9678 H   0  0  0  0  0  0  0  0  0  0  0  0
   18.4974   17.7179   23.6174 H   0  0  0  0  0  0  0  0  0  0  0  0
   19.8907   19.2154   22.8816 C   0  0  0  0  0  0  0  0  0  0  0  0
   20.8632   19.6405   23.1635 H   0  0  0  0  0  0  0  0  0  0  0  0
   19.1703   20.0454   22.8730 H   0  0  0  0  0  0  0  0  0  0  0  0
   19.9934   18.6073   21.4643 C   0  0  0  0  0  0  0  0  0  0  0  0
   20.7112   17.7752   21.4725 H   0  0  0  0  0  0  0  0  0  0  0  0
   19.0214   18.1849   21.1738 H   0  0  0  0  0  0  0  0  0  0  0  0
   20.4323   19.6554   20.4174 C   0  0  0  0  0  0  0  0  0  0  0  0
   21.4059   20.0789   20.7014 H   0  0  0  0  0  0  0  0  0  0  0  0
   19.7162   20.4891   20.4039 H   0  0  0  0  0  0  0  0  0  0  0  0
   20.5330   19.0445   19.0033 C   0  0  0  0  0  0  0  0  0  0  0  0
   21.2678   18.2293   18.9767 H   0  0  0  0  0  0  0  0  0  0  0  0
   20.8456   19.8034   18.2744 H   0  0  0  0  0  0  0  0  0  0  0  0
   19.5649   18.6428   18.6768 H   0  0  0  0  0  0  0  0  0  0  0  0
   20.2778   19.8477   27.3379 C   0  0  0  0  0  0  0  0  0  0  0  0
   19.8798   19.0501   27.9692 H   0  0  0  0  0  0  0  0  0  0  0  0
   21.2088   20.2266   27.7654 H   0  0  0  0  0  0  0  0  0  0  0  0
   19.5496   20.6582   27.2625 H   0  0  0  0  0  0  0  0  0  0  0  0
  1  2  1  0  0  0  0
  1  3  1  0  0  0  0
  1  4  1  0  0  0  0
  4  5  1  0  0  0  0
  4  6  1  0  0  0  0
  4  7  1  0  0  0  0
  7  8  1  0  0  0  0
  7  9  1  0  0  0  0
  7 10  1  0  0  0  0
 10 11  1  0  0  0  0
 10 12  1  0  0  0  0
 10 13  1  0  0  0  0
 13 14  1  0  0  0  0
 13 15  1  0  0  0  0
 13 16  1  0  0  0  0
 16 17  1  0  0  0  0
 16 18  1  0  0  0  0
 16 19  1  0  0  0  0
 19 20  1  0  0  0  0
 19 21  1  0  0  0  0
 19 22  1  0  0  0  0
  1 23  1  0  0  0  0
 23 24  1  0  0  0  0
 23 25  1  0  0  0  0
 23 26  1  0  0  0  0
M  END
> <VM2 Rank>
4

> <Conf_Id>
484

> <Probability>
3.19

> <Sum Probability>
19.00

> <Delta G>
0.478

> <G>
75.944

> <E>
43.689

> <-TS>
32.255

> <U+W>
22.227

> <U>
71.142

> <W>
-48.916

> <W(PB)>
-51.253

> <W(SA)>
2.337

> <Valence>
1.835

> <Coulomb>
69.101

> <VdW>
0.206

> <VdW6>
-5.849

> <VdW12>
6.055

> <Bond>
0.142

> <Angle>
0.413

> <Pdih>
1.279

> <Idih>
0.000

> <Tether>
0.000

$$$$
VeraChem MOL file


 26 25  0  0  0  0  0  0  0  0999 V2000     
   19.9281   18.8065   26.2896 N   0  3  0  0  0  0  0  0  0  0  0  0
   20.7993   19.0420   26.7900 H   0  0  0  0  0  0  0  0  0  0  0  0
   19.8671   17.7767   26.3147 H   0  0  0  0  0  0  0  0  0  0  0  0
   20.0012   19.2913   24.8557 C   0  0  0  0  0  0  0  0  0  0  0  0
   20.0756   20.3816   24.8737 H   0  0  0  0  0  0  0  0  0  0  0  0
   19.0648   19.0176   24.3639 H   0  0  0  0  0  0  0  0  0  0  0  0
   21.1920   18.7036   24.0742 C   0  0  0  0  0  0  0  0  0  0  0  0
   22.1234   18.9481   24.6021 H   0  0  0  0  0  0  0  0  0  0  0  0
   21.1183   17.6080   24.0577 H   0  0  0  0  0  0  0  0  0  0  0  0
   21.2800   19.2406   22.6261 C   0  0  0  0  0  0  0  0  0  0  0  0
   22.1973   18.8527   22.1618 H   0  0  0  0  0  0  0  0  0  0  0  0
   21.3814   20.3346   22.6466 H   0  0  0  0  0  0  0  0  0  0  0  0
   20.0626   18.8451   21.7557 C   0  0  0  0  0  0  0  0  0  0  0  0
   19.9442   17.7526   21.7645 H   0  0  0  0  0  0  0  0  0  0  0  0
   19.1430   19.2682   22.1815 H   0  0  0  0  0  0  0  0  0  0  0  0
   20.2163   19.3333   20.2979 C   0  0  0  0  0  0  0  0  0  0  0  0
   21.1298   18.9088   19.8582 H   0  0  0  0  0  0  0  0  0  0  0  0
   20.3360   20.4258   20.2832 H   0  0  0  0  0  0  0  0  0  0  0  0
   19.0010   18.9397   19.4313 C   0  0  0  0  0  0  0  0  0  0  0  0
   18.0755   19.3789   19.8260 H   0  0  0  0  0  0  0  0  0  0  0  0
   18.8755   17.8496   19.3990 H   0  0  0  0  0  0  0  0  0  0  0  0
   19.1288   19.2945   18.4004 H   0  0  0  0  0  0  0  0  0  0  0  0
   18.7267   19.4299   26.9865 C   0  0  0  0  0  0  0  0  0  0  0  0
   18.6859   19.0728   28.0180 H   0  0  0  0  0  0  0  0  0  0  0  0
   18.8299   20.5172   26.9765 H   0  0  0  0  0  0  0  0  0  0  0  0
   17.8152   19.1397   26.4594 H   0  0  0  0  0  0  0  0  0  0  0  0
  1  2  1  0  0  0  0
  1  3  1  0  0  0  0
  1  4  1  0  0  0  0
  4  5  1  0  0  0  0
  4  6  1  0  0  0  0
  4  7  1  0  0  0  0
  7  8  1  0  0  0  0
  7  9  1  0  0  0  0
  7 10  1  0  0  0  0
 10 11  1  0  0  0  0
 10 12  1  0  0  0  0
 10 13  1  0  0  0  0
 13 14  1  0  0  0  0
 13 15  1  0  0  0  0
 13 16  1  0  0  0  0
 16 17  1  0  0  0  0
 16 18  1  0  0  0  0
 16 19  1  0  0  0  0
 19 20  1  0  0  0  0
 19 21  1  0  0  0  0
 19 22  1  0  0  0  0
  1 23  1  0  0  0  0
 23 24  1  0  0  0  0
 23 25  1  0  0  0  0
 23 26  1  0  0  0  0
M  END
> <VM2 Rank>
5

> <Conf_Id>
485

> <Probability>
2.77

> <Sum Probability>
21.78

> <Delta G>
0.562

> <G>
76.028

> <E>
43.768

> <-TS>
32.260

> <U+W>
22.306

> <U>
71.138

> <W>
-48.832

> <W(PB)>
-51.176

> <W(SA)>
2.344

> <Valence>
2.016

> <Coulomb>
68.932

> <VdW>
0.190

> <VdW6>
-5.902

> <VdW12>
6.092

> <Bond>
0.149

> <Angle>
0.477

> <Pdih>
1.390

> <Idih>
0.000

> <Tether>
0.000

$$$$
VeraChem MOL file


 26 25  0  0  0  0  0  0  0  0999 V2000     
   20.0150   18.8154   26.2927 N   0  3  0  0  0  0  0  0  0  0  0  0
   20.2811   17.8191   26.3294 H   0  0  0  0  0  0  0  0  0  0  0  0
   19.0813   18.8663   26.7290 H   0  0  0  0  0  0  0  0  0  0  0  0
   19.9461   19.2856   24.8537 C   0  0  0  0  0  0  0  0  0  0  0  0
   20.9506   19.2103   24.4308 H   0  0  0  0  0  0  0  0  0  0  0  0
   19.6519   20.3382   24.8586 H   0  0  0  0  0  0  0  0  0  0  0  0
   18.9563   18.4749   23.9950 C   0  0  0  0  0  0  0  0  0  0  0  0
   19.2509   17.4170   23.9915 H   0  0  0  0  0  0  0  0  0  0  0  0
   17.9601   18.5224   24.4546 H   0  0  0  0  0  0  0  0  0  0  0  0
   18.8633   18.9935   22.5405 C   0  0  0  0  0  0  0  0  0  0  0  0
   18.5416   20.0443   22.5460 H   0  0  0  0  0  0  0  0  0  0  0  0
   18.0780   18.4316   22.0159 H   0  0  0  0  0  0  0  0  0  0  0  0
   20.1933   18.8584   21.7603 C   0  0  0  0  0  0  0  0  0  0  0  0
   20.9763   19.4556   22.2464 H   0  0  0  0  0  0  0  0  0  0  0  0
   20.5291   17.8124   21.7852 H   0  0  0  0  0  0  0  0  0  0  0  0
   20.0465   19.3159   20.2919 C   0  0  0  0  0  0  0  0  0  0  0  0
   19.7097   20.3617   20.2609 H   0  0  0  0  0  0  0  0  0  0  0  0
   19.2708   18.7186   19.7923 H   0  0  0  0  0  0  0  0  0  0  0  0
   21.3739   19.1824   19.5153 C   0  0  0  0  0  0  0  0  0  0  0  0
   21.2495   19.5113   18.4754 H   0  0  0  0  0  0  0  0  0  0  0  0
   21.7193   18.1405   19.4997 H   0  0  0  0  0  0  0  0  0  0  0  0
   22.1615   19.7968   19.9707 H   0  0  0  0  0  0  0  0  0  0  0  0
   21.0136   19.6639   27.0676 C   0  0  0  0  0  0  0  0  0  0  0  0
   21.0535   19.3150   28.1019 H   0  0  0  0  0  0  0  0  0  0  0  0
   21.9997   19.5678   26.6078 H   0  0  0  0  0  0  0  0  0  0  0  0
   20.6936   20.7079   27.0426 H   0  0  0  0  0  0  0  0  0  0  0  0
  1  2  1  0  0  0  0
  1  3  1  0  0  0  0
  1  4  1  0  0  0  0
  4  5  1  0  0  0  0
  4  6  1  0  0  0  0
  4  7  1  0  0  0  0
  7  8  1  0  0  0  0
  7  9  1  0  0  0  0
  7 10  1  0  0  0  0
 10 11  1  0  0  0  0
 10 12  1  0  0  0  0
 10 13  1  0  0  0  0
 13 14  1  0  0  0  0
 13 15  1  0  0  0  0
 13 16  1  0  0  0  0
 16 17  1  0  0  0  0
 16 18  1  0  0  0  0
 16 19  1  0  0  0  0
 19 20  1  0  0  0  0
 19 21  1  0  0  0  0
 19 22  1  0  0  0  0
  1 23  1  0  0  0  0
 23 24  1  0  0  0  0
 23 25  1  0  0  0  0
 23 26  1  0  0  0  0
M  END
> <VM2 Rank>
6

> <Conf_Id>
1096

> <Probability>
2.63

> <Sum Probability>
24.41

> <Delta G>
0.593

> <G>
76.059

> <E>
43.798

> <-TS>
32.260

> <U+W>
22.337

> <U>
71.138

> <W>
-48.801

> <W(PB)>
-51.136

> <W(SA)>
2.335

> <Valence>
2.016

> <Coulomb>
68.932

> <VdW>
0.190

> <VdW6>
-5.902

> <VdW12>
6.092

> <Bond>
0.149

> <Angle>
0.477

> <Pdih>
1.390

> <Idih>
0.000

> <Tether>
0.000

$$$$
VeraChem MOL file


 26 25  0  0  0  0  0  0  0  0999 V2000     
   19.5900   19.7660   26.0203 N   0  3  0  0  0  0  0  0  0  0  0  0
   18.9701   19.9962   26.8132 H   0  0  0  0  0  0  0  0  0  0  0  0
   19.4490   20.5280   25.3405 H   0  0  0  0  0  0  0  0  0  0  0  0
   19.1666   18.4378   25.4125 C   0  0  0  0  0  0  0  0  0  0  0  0
   18.0904   18.4914   25.2291 H   0  0  0  0  0  0  0  0  0  0  0  0
   19.3412   17.6611   26.1613 H   0  0  0  0  0  0  0  0  0  0  0  0
   19.8810   18.0565   24.0973 C   0  0  0  0  0  0  0  0  0  0  0  0
   20.9575   17.9412   24.2782 H   0  0  0  0  0  0  0  0  0  0  0  0
   19.5144   17.0716   23.7790 H   0  0  0  0  0  0  0  0  0  0  0  0
   19.6410   19.0830   22.9649 C   0  0  0  0  0  0  0  0  0  0  0  0
   20.0430   20.0619   23.2587 H   0  0  0  0  0  0  0  0  0  0  0  0
   18.5607   19.2137   22.8118 H   0  0  0  0  0  0  0  0  0  0  0  0
   20.3006   18.6403   21.6390 C   0  0  0  0  0  0  0  0  0  0  0  0
   21.3804   18.5063   21.7927 H   0  0  0  0  0  0  0  0  0  0  0  0
   19.8993   17.6630   21.3368 H   0  0  0  0  0  0  0  0  0  0  0  0
   20.0649   19.6654   20.5073 C   0  0  0  0  0  0  0  0  0  0  0  0
   20.4673   20.6444   20.8032 H   0  0  0  0  0  0  0  0  0  0  0  0
   18.9859   19.8014   20.3484 H   0  0  0  0  0  0  0  0  0  0  0  0
   20.7247   19.2196   19.1848 C   0  0  0  0  0  0  0  0  0  0  0  0
   20.5465   19.9597   18.3939 H   0  0  0  0  0  0  0  0  0  0  0  0
   20.3174   18.2586   18.8446 H   0  0  0  0  0  0  0  0  0  0  0  0
   21.8104   19.1080   19.3031 H   0  0  0  0  0  0  0  0  0  0  0  0
   21.0393   19.7215   26.4908 C   0  0  0  0  0  0  0  0  0  0  0  0
   21.2951   20.6783   26.9514 H   0  0  0  0  0  0  0  0  0  0  0  0
   21.1547   18.9179   27.2214 H   0  0  0  0  0  0  0  0  0  0  0  0
   21.6916   19.5404   25.6341 H   0  0  0  0  0  0  0  0  0  0  0  0
  1  2  1  0  0  0  0
  1  3  1  0  0  0  0
  1  4  1  0  0  0  0
  4  5  1  0  0  0  0
  4  6  1  0  0  0  0
  4  7  1  0  0  0  0
  7  8  1  0  0  0  0
  7  9  1  0  0  0  0
  7 10  1  0  0  0  0
 10 11  1  0  0  0  0
 10 12  1  0  0  0  0
 10 13  1  0  0  0  0
 13 14  1  0  0  0  0
 13 15  1  0  0  0  0
 13 16  1  0  0  0  0
 16 17  1  0  0  0  0
 16 18  1  0  0  0  0
 16 19  1  0  0  0  0
 19 20  1  0  0  0  0
 19 21  1  0  0  0  0
 19 22  1  0  0  0  0
  1 23  1  0  0  0  0
 23 24  1  0  0  0  0
 23 25  1  0  0  0  0
 23 26  1  0  0  0  0
M  END
> <VM2 Rank>
7

> <Conf_Id>
775

> <Probability>
2.63

> <Sum Probability>
27.04

> <Delta G>
0.594

> <G>
76.060

> <E>
43.581

> <-TS>
32.480

> <U+W>
22.119

> <U>
71.479

> <W>
-49.361

> <W(PB)>
-51.654

> <W(SA)>
2.294

> <Valence>
2.085

> <Coulomb>
68.999

> <VdW>
0.395

> <VdW6>
-6.753

> <VdW12>
7.148

> <Bond>
0.184

> <Angle>
0.576

> <Pdih>
1.325

> <Idih>
0.000

> <Tether>
0.000

$$$$
VeraChem MOL file


 26 25  0  0  0  0  0  0  0  0999 V2000     
   20.1696   19.8255   26.0409 N   0  3  0  0  0  0  0  0  0  0  0  0
   20.2001   20.6051   25.3671 H   0  0  0  0  0  0  0  0  0  0  0  0
   20.6729   20.1711   26.8734 H   0  0  0  0  0  0  0  0  0  0  0  0
   20.8953   18.6153   25.4736 C   0  0  0  0  0  0  0  0  0  0  0  0
   20.8300   17.8140   26.2140 H   0  0  0  0  0  0  0  0  0  0  0  0
   21.9483   18.8876   25.3656 H   0  0  0  0  0  0  0  0  0  0  0  0
   20.3669   18.1064   24.1145 C   0  0  0  0  0  0  0  0  0  0  0  0
   20.9469   17.2186   23.8298 H   0  0  0  0  0  0  0  0  0  0  0  0
   19.3262   17.7739   24.2204 H   0  0  0  0  0  0  0  0  0  0  0  0
   20.4724   19.1684   22.9943 C   0  0  0  0  0  0  0  0  0  0  0  0
   21.5118   19.5164   22.9161 H   0  0  0  0  0  0  0  0  0  0  0  0
   19.8607   20.0433   23.2521 H   0  0  0  0  0  0  0  0  0  0  0  0
   20.0107   18.6106   21.6288 C   0  0  0  0  0  0  0  0  0  0  0  0
   20.6218   17.7370   21.3624 H   0  0  0  0  0  0  0  0  0  0  0  0
   18.9724   18.2595   21.7075 H   0  0  0  0  0  0  0  0  0  0  0  0
   20.1123   19.6702   20.5089 C   0  0  0  0  0  0  0  0  0  0  0  0
   21.1497   20.0232   20.4249 H   0  0  0  0  0  0  0  0  0  0  0  0
   19.5001   20.5452   20.7689 H   0  0  0  0  0  0  0  0  0  0  0  0
   19.6507   19.1093   19.1468 C   0  0  0  0  0  0  0  0  0  0  0  0
   18.6046   18.7792   19.1896 H   0  0  0  0  0  0  0  0  0  0  0  0
   20.2671   18.2533   18.8428 H   0  0  0  0  0  0  0  0  0  0  0  0
   19.7301   19.8758   18.3649 H   0  0  0  0  0  0  0  0  0  0  0  0
   18.7303   19.4843   26.4093 C   0  0  0  0  0  0  0  0  0  0  0  0
   18.1898   19.1808   25.5104 H   0  0  0  0  0  0  0  0  0  0  0  0
   18.7297   18.6689   27.1358 H   0  0  0  0  0  0  0  0  0  0  0  0
   18.2540   20.3660   26.8439 H   0  0  0  0  0  0  0  0  0  0  0  0
  1  2  1  0  0  0  0
  1  3  1  0  0  0  0
  1  4  1  0  0  0  0
  4  5  1  0  0  0  0
  4  6  1  0  0  0  0
  4  7  1  0  0  0  0
  7  8  1  0  0  0  0
  7  9  1  0  0  0  0
  7 10  1  0  0  0  0
 10 11  1  0  0  0  0
 10 12  1  0  0  0  0
 10 13  1  0  0  0  0
 13 14  1  0  0  0  0
 13 15  1  0  0  0  0
 13 16  1  0  0  0  0
 16 17  1  0  0  0  0
 16 18  1  0  0  0  0
 16 19  1  0  0  0  0
 19 20  1  0  0  0  0
 19 21  1  0  0  0  0
 19 22  1  0  0  0  0
  1 23  1  0  0  0  0
 23 24  1  0  0  0  0
 23 25  1  0  0  0  0
 23 26  1  0  0  0  0
M  END
> <VM2 Rank>
8

> <Conf_Id>
1288

> <Probability>
2.46

> <Sum Probability>
29.50

> <Delta G>
0.632

> <G>
76.098

> <E>
43.619

> <-TS>
32.479

> <U+W>
22.157

> <U>
71.479

> <W>
-49.322

> <W(PB)>
-51.599

> <W(SA)>
2.276

> <Valence>
2.085

> <Coulomb>
68.999

> <VdW>
0.395

> <VdW6>
-6.752

> <VdW12>
7.148

> <Bond>
0.184

> <Angle>
0.576

> <Pdih>
1.325

> <Idih>
0.000

> <Tether>
0.000

$$$$
VeraChem MOL file


 26 25  0  0  0  0  0  0  0  0999 V2000     
   19.9281   18.7435   26.4135 N   0  3  0  0  0  0  0  0  0  0  0  0
   20.5506   17.9222   26.4655 H   0  0  0  0  0  0  0  0  0  0  0  0
   18.9718   18.3702   26.5182 H   0  0  0  0  0  0  0  0  0  0  0  0
   20.0777   19.4288   25.0700 C   0  0  0  0  0  0  0  0  0  0  0  0
   21.1025   19.8012   24.9959 H   0  0  0  0  0  0  0  0  0  0  0  0
   19.3982   20.2846   25.0526 H   0  0  0  0  0  0  0  0  0  0  0  0
   19.7755   18.5032   23.8775 C   0  0  0  0  0  0  0  0  0  0  0  0
   20.4493   17.6365   23.9080 H   0  0  0  0  0  0  0  0  0  0  0  0
   18.7506   18.1183   23.9652 H   0  0  0  0  0  0  0  0  0  0  0  0
   19.9408   19.2432   22.5316 C   0  0  0  0  0  0  0  0  0  0  0  0
   20.9649   19.6331   22.4603 H   0  0  0  0  0  0  0  0  0  0  0  0
   19.2666   20.1105   22.5054 H   0  0  0  0  0  0  0  0  0  0  0  0
   19.6426   18.3190   21.3262 C   0  0  0  0  0  0  0  0  0  0  0  0
   20.3490   17.4774   21.3204 H   0  0  0  0  0  0  0  0  0  0  0  0
   18.6421   17.8814   21.4482 H   0  0  0  0  0  0  0  0  0  0  0  0
   19.6964   19.0478   19.9615 C   0  0  0  0  0  0  0  0  0  0  0  0
   18.9749   19.8768   19.9539 H   0  0  0  0  0  0  0  0  0  0  0  0
   19.3710   18.3508   19.1766 H   0  0  0  0  0  0  0  0  0  0  0  0
   21.1030   19.5795   19.6030 C   0  0  0  0  0  0  0  0  0  0  0  0
   21.1067   20.0035   18.5905 H   0  0  0  0  0  0  0  0  0  0  0  0
   21.8489   18.7746   19.6321 H   0  0  0  0  0  0  0  0  0  0  0  0
   21.4231   20.3707   20.2922 H   0  0  0  0  0  0  0  0  0  0  0  0
   20.2439   19.7249   27.5337 C   0  0  0  0  0  0  0  0  0  0  0  0
   20.1324   19.2189   28.4953 H   0  0  0  0  0  0  0  0  0  0  0  0
   21.2705   20.0805   27.4209 H   0  0  0  0  0  0  0  0  0  0  0  0
   19.5519   20.5681   27.4783 H   0  0  0  0  0  0  0  0  0  0  0  0
  1  2  1  0  0  0  0
  1  3  1  0  0  0  0
  1  4  1  0  0  0  0
  4  5  1  0  0  0  0
  4  6  1  0  0  0  0
  4  7  1  0  0  0  0
  7  8  1  0  0  0  0
  7  9  1  0  0  0  0
  7 10  1  0  0  0  0
 10 11  1  0  0  0  0
 10 12  1  0  0  0  0
 10 13  1  0  0  0  0
 13 14  1  0  0  0  0
 13 15  1  0  0  0  0
 13 16  1  0  0  0  0
 16 17  1  0  0  0  0
 16 18  1  0  0  0  0
 16 19  1  0  0  0  0
 19 20  1  0  0  0  0
 19 21  1  0  0  0  0
 19 22  1  0  0  0  0
  1 23  1  0  0  0  0
 23 24  1  0  0  0  0
 23 25  1  0  0  0  0
 23 26  1  0  0  0  0
M  END
> <VM2 Rank>
9

> <Conf_Id>
760

> <Probability>
2.29

> <Sum Probability>
31.79

> <Delta G>
0.676

> <G>
76.142

> <E>
43.870

> <-TS>
32.272

> <U+W>
22.408

> <U>
71.035

> <W>
-48.627

> <W(PB)>
-50.936

> <W(SA)>
2.309

> <Valence>
2.223

> <Coulomb>
68.516

> <VdW>
0.297

> <VdW6>
-5.882

> <VdW12>
6.178

> <Bond>
0.162

> <Angle>
0.596

> <Pdih>
1.465

> <Idih>
0.000

> <Tether>
0.000

$$$$
VeraChem MOL file


 26 25  0  0  0  0  0  0  0  0999 V2000     
   20.0192   18.7529   26.4167 N   0  3  0  0  0  0  0  0  0  0  0  0
   21.0216   18.5802   26.5908 H   0  0  0  0  0  0  0  0  0  0  0  0
   19.5738   17.8222   26.4311 H   0  0  0  0  0  0  0  0  0  0  0  0
   19.8283   19.4032   25.0612 C   0  0  0  0  0  0  0  0  0  0  0  0
   20.3201   20.3790   25.0852 H   0  0  0  0  0  0  0  0  0  0  0  0
   18.7571   19.5610   24.9129 H   0  0  0  0  0  0  0  0  0  0  0  0
   20.3943   18.5664   23.8995 C   0  0  0  0  0  0  0  0  0  0  0  0
   21.4670   18.3961   24.0614 H   0  0  0  0  0  0  0  0  0  0  0  0
   19.9091   17.5812   23.8888 H   0  0  0  0  0  0  0  0  0  0  0  0
   20.1774   19.2673   22.5399 C   0  0  0  0  0  0  0  0  0  0  0  0
   20.6625   20.2532   22.5549 H   0  0  0  0  0  0  0  0  0  0  0  0
   19.1032   19.4426   22.3943 H   0  0  0  0  0  0  0  0  0  0  0  0
   20.7400   18.4313   21.3651 C   0  0  0  0  0  0  0  0  0  0  0  0
   21.7972   18.2041   21.5600 H   0  0  0  0  0  0  0  0  0  0  0  0
   20.2205   17.4643   21.3157 H   0  0  0  0  0  0  0  0  0  0  0  0
   20.6357   19.1440   19.9948 C   0  0  0  0  0  0  0  0  0  0  0  0
   21.1497   18.5328   19.2396 H   0  0  0  0  0  0  0  0  0  0  0  0
   21.1733   20.1018   20.0320 H   0  0  0  0  0  0  0  0  0  0  0  0
   19.1794   19.3828   19.5348 C   0  0  0  0  0  0  0  0  0  0  0  0
   18.6116   18.4435   19.5172 H   0  0  0  0  0  0  0  0  0  0  0  0
   19.1610   19.8046   18.5216 H   0  0  0  0  0  0  0  0  0  0  0  0
   18.6583   20.0878   20.1942 H   0  0  0  0  0  0  0  0  0  0  0  0
   19.4337   19.6421   27.5051 C   0  0  0  0  0  0  0  0  0  0  0  0
   18.3669   19.7832   27.3182 H   0  0  0  0  0  0  0  0  0  0  0  0
   19.5779   19.1623   28.4757 H   0  0  0  0  0  0  0  0  0  0  0  0
   19.9428   20.6083   27.4920 H   0  0  0  0  0  0  0  0  0  0  0  0
  1  2  1  0  0  0  0
  1  3  1  0  0  0  0
  1  4  1  0  0  0  0
  4  5  1  0  0  0  0
  4  6  1  0  0  0  0
  4  7  1  0  0  0  0
  7  8  1  0  0  0  0
  7  9  1  0  0  0  0
  7 10  1  0  0  0  0
 10 11  1  0  0  0  0
 10 12  1  0  0  0  0
 10 13  1  0  0  0  0
 13 14  1  0  0  0  0
 13 15  1  0  0  0  0
 13 16  1  0  0  0  0
 16 17  1  0  0  0  0
 16 18  1  0  0  0  0
 16 19  1  0  0  0  0
 19 20  1  0  0  0  0
 19 21  1  0  0  0  0
 19 22  1  0  0  0  0
  1 23  1  0  0  0  0
 23 24  1  0  0  0  0
 23 25  1  0  0  0  0
 23 26  1  0  0  0  0
M  END
> <VM2 Rank>
10

> <Conf_Id>
472

> <Probability>
2.25

> <Sum Probability>
34.04

> <Delta G>
0.686

> <G>
76.152

> <E>
43.880

> <-TS>
32.272

> <U+W>
22.418

> <U>
71.035

> <W>
-48.617

> <W(PB)>
-50.942

> <W(SA)>
2.325

> <Valence>
2.223

> <Coulomb>
68.516

> <VdW>
0.297

> <VdW6>
-5.881

> <VdW12>
6.178

> <Bond>
0.162

> <Angle>
0.596

> <Pdih>
1.465

> <Idih>
0.000

> <Tether>
0.000

$$$$
VeraChem MOL file


 26 25  0  0  0  0  0  0  0  0999 V2000     
   19.4929   18.7740   26.3216 N   0  3  0  0  0  0  0  0  0  0  0  0
   18.8922   18.0230   26.6972 H   0  0  0  0  0  0  0  0  0  0  0  0
   19.1471   19.6386   26.7658 H   0  0  0  0  0  0  0  0  0  0  0  0
   19.3243   18.8543   24.8137 C   0  0  0  0  0  0  0  0  0  0  0  0
   18.2512   18.8717   24.6070 H   0  0  0  0  0  0  0  0  0  0  0  0
   19.7385   17.9400   24.3822 H   0  0  0  0  0  0  0  0  0  0  0  0
   19.9804   20.0900   24.1615 C   0  0  0  0  0  0  0  0  0  0  0  0
   19.6051   20.9965   24.6543 H   0  0  0  0  0  0  0  0  0  0  0  0
   21.0655   20.0695   24.3257 H   0  0  0  0  0  0  0  0  0  0  0  0
   19.6916   20.1863   22.6449 C   0  0  0  0  0  0  0  0  0  0  0  0
   20.1068   21.1306   22.2664 H   0  0  0  0  0  0  0  0  0  0  0  0
   18.6062   20.2367   22.4809 H   0  0  0  0  0  0  0  0  0  0  0  0
   20.2881   19.0081   21.8375 C   0  0  0  0  0  0  0  0  0  0  0  0
   21.3680   18.9409   22.0294 H   0  0  0  0  0  0  0  0  0  0  0  0
   19.8459   18.0606   22.1734 H   0  0  0  0  0  0  0  0  0  0  0  0
   20.0451   19.1704   20.3203 C   0  0  0  0  0  0  0  0  0  0  0  0
   20.4913   20.1122   19.9712 H   0  0  0  0  0  0  0  0  0  0  0  0
   18.9661   19.2388   20.1226 H   0  0  0  0  0  0  0  0  0  0  0  0
   20.6393   17.9941   19.5164 C   0  0  0  0  0  0  0  0  0  0  0  0
   20.4571   18.1276   18.4421 H   0  0  0  0  0  0  0  0  0  0  0  0
   20.1869   17.0406   19.8186 H   0  0  0  0  0  0  0  0  0  0  0  0
   21.7242   17.9207   19.6673 H   0  0  0  0  0  0  0  0  0  0  0  0
   20.9462   18.5129   26.7010 C   0  0  0  0  0  0  0  0  0  0  0  0
   21.2779   17.5837   26.2328 H   0  0  0  0  0  0  0  0  0  0  0  0
   21.5651   19.3436   26.3560 H   0  0  0  0  0  0  0  0  0  0  0  0
   21.0216   18.4257   27.7872 H   0  0  0  0  0  0  0  0  0  0  0  0
  1  2  1  0  0  0  0
  1  3  1  0  0  0  0
  1  4  1  0  0  0  0
  4  5  1  0  0  0  0
  4  6  1  0  0  0  0
  4  7  1  0  0  0  0
  7  8  1  0  0  0  0
  7  9  1  0  0  0  0
  7 10  1  0  0  0  0
 10 11  1  0  0  0  0
 10 12  1  0  0  0  0
 10 13  1  0  0  0  0
 13 14  1  0  0  0  0
 13 15  1  0  0  0  0
 13 16  1  0  0  0  0
 16 17  1  0  0  0  0
 16 18  1  0  0  0  0
 16 19  1  0  0  0  0
 19 20  1  0  0  0  0
 19 21  1  0  0  0  0
 19 22  1  0  0  0  0
  1 23  1  0  0  0  0
 23 24  1  0  0  0  0
 23 25  1  0  0  0  0
 23 26  1  0  0  0  0
M  END
> <VM2 Rank>
11

> <Conf_Id>
857

> <Probability>
2.05

> <Sum Probability>
36.09

> <Delta G>
0.743

> <G>
76.209

> <E>
43.783

> <-TS>
32.426

> <U+W>
22.321

> <U>
71.511

> <W>
-49.190

> <W(PB)>
-51.479

> <W(SA)>
2.289

> <Valence>
2.291

> <Coulomb>
68.784

> <VdW>
0.437

> <VdW6>
-6.615

> <VdW12>
7.052

> <Bond>
0.185

> <Angle>
0.586

> <Pdih>
1.520

> <Idih>
0.000

> <Tether>
0.000

$$$$
VeraChem MOL file


 26 25  0  0  0  0  0  0  0  0999 V2000     
   20.4436   18.8697   26.3553 N   0  3  0  0  0  0  0  0  0  0  0  0
   20.5785   19.7826   26.8166 H   0  0  0  0  0  0  0  0  0  0  0  0
   21.1539   18.2506   26.7774 H   0  0  0  0  0  0  0  0  0  0  0  0
   20.6982   18.9925   24.8624 C   0  0  0  0  0  0  0  0  0  0  0  0
   20.5054   18.0172   24.4094 H   0  0  0  0  0  0  0  0  0  0  0  0
   21.7581   19.2246   24.7313 H   0  0  0  0  0  0  0  0  0  0  0  0
   19.8567   20.0775   24.1571 C   0  0  0  0  0  0  0  0  0  0  0  0
   18.7886   19.8404   24.2450 H   0  0  0  0  0  0  0  0  0  0  0  0
   20.0086   21.0372   24.6686 H   0  0  0  0  0  0  0  0  0  0  0  0
   20.2261   20.2400   22.6638 C   0  0  0  0  0  0  0  0  0  0  0  0
   21.2886   20.5066   22.5759 H   0  0  0  0  0  0  0  0  0  0  0  0
   19.6589   21.0856   22.2505 H   0  0  0  0  0  0  0  0  0  0  0  0
   19.9342   18.9724   21.8249 C   0  0  0  0  0  0  0  0  0  0  0  0
   20.5315   18.1296   22.1976 H   0  0  0  0  0  0  0  0  0  0  0  0
   18.8786   18.6902   21.9413 H   0  0  0  0  0  0  0  0  0  0  0  0
   20.2456   19.1906   20.3274 C   0  0  0  0  0  0  0  0  0  0  0  0
   21.3005   19.4738   20.2053 H   0  0  0  0  0  0  0  0  0  0  0  0
   19.6464   20.0272   19.9413 H   0  0  0  0  0  0  0  0  0  0  0  0
   19.9552   17.9253   19.4922 C   0  0  0  0  0  0  0  0  0  0  0  0
   18.8988   17.6364   19.5672 H   0  0  0  0  0  0  0  0  0  0  0  0
   20.5661   17.0788   19.8320 H   0  0  0  0  0  0  0  0  0  0  0  0
   20.1820   18.0999   18.4324 H   0  0  0  0  0  0  0  0  0  0  0  0
   19.0484   18.3220   26.6338 C   0  0  0  0  0  0  0  0  0  0  0  0
   18.3024   19.0153   26.2403 H   0  0  0  0  0  0  0  0  0  0  0  0
   18.9419   17.3486   26.1499 H   0  0  0  0  0  0  0  0  0  0  0  0
   18.9159   18.2138   27.7126 H   0  0  0  0  0  0  0  0  0  0  0  0
  1  2  1  0  0  0  0
  1  3  1  0  0  0  0
  1  4  1  0  0  0  0
  4  5  1  0  0  0  0
  4  6  1  0  0  0  0
  4  7  1  0  0  0  0
  7  8  1  0  0  0  0
  7  9  1  0  0  0  0
  7 10  1  0  0  0  0
 10 11  1  0  0  0  0
 10 12  1  0  0  0  0
 10 13  1  0  0  0  0
 13 14  1  0  0  0  0
 13 15  1  0  0  0  0
 13 16  1  0  0  0  0
 16 17  1  0  0  0  0
 16 18  1  0  0  0  0
 16 19  1  0  0  0  0
 19 20  1  0  0  0  0
 19 21  1  0  0  0  0
 19 22  1  0  0  0  0
  1 23  1  0  0  0  0
 23 24  1  0  0  0  0
 23 25  1  0  0  0  0
 23 26  1  0  0  0  0
M  END
> <VM2 Rank>
12

> <Conf_Id>
230

> <Probability>
2.04

> <Sum Probability>
38.13

> <Delta G>
0.745

> <G>
76.211

> <E>
43.785

> <-TS>
32.426

> <U+W>
22.323

> <U>
71.512

> <W>
-49.188

> <W(PB)>
-51.478

> <W(SA)>
2.290

> <Valence>
2.291

> <Coulomb>
68.784

> <VdW>
0.437

> <VdW6>
-6.615

> <VdW12>
7.052

> <Bond>
0.185

> <Angle>
0.586

> <Pdih>
1.520

> <Idih>
0.000

> <Tether>
0.000

$$$$
VeraChem MOL file


 26 25  0  0  0  0  0  0  0  0999 V2000     
   19.5536   18.5508   26.1836 N   0  3  0  0  0  0  0  0  0  0  0  0
   20.0708   17.6582   26.2067 H   0  0  0  0  0  0  0  0  0  0  0  0
   18.5857   18.3008   25.9276 H   0  0  0  0  0  0  0  0  0  0  0  0
   20.1493   19.4735   25.1393 C   0  0  0  0  0  0  0  0  0  0  0  0
   21.1730   19.7067   25.4431 H   0  0  0  0  0  0  0  0  0  0  0  0
   19.5700   20.4003   25.1411 H   0  0  0  0  0  0  0  0  0  0  0  0
   20.1541   18.8687   23.7237 C   0  0  0  0  0  0  0  0  0  0  0  0
   20.7234   17.9297   23.7304 H   0  0  0  0  0  0  0  0  0  0  0  0
   19.1240   18.6215   23.4378 H   0  0  0  0  0  0  0  0  0  0  0  0
   20.7730   19.8458   22.6963 C   0  0  0  0  0  0  0  0  0  0  0  0
   21.7717   20.1439   23.0447 H   0  0  0  0  0  0  0  0  0  0  0  0
   20.1746   20.7665   22.6535 H   0  0  0  0  0  0  0  0  0  0  0  0
   20.9077   19.2477   21.2741 C   0  0  0  0  0  0  0  0  0  0  0  0
   21.4589   19.9622   20.6470 H   0  0  0  0  0  0  0  0  0  0  0  0
   21.5210   18.3368   21.3139 H   0  0  0  0  0  0  0  0  0  0  0  0
   19.5498   18.9333   20.6023 C   0  0  0  0  0  0  0  0  0  0  0  0
   18.9157   19.8309   20.6086 H   0  0  0  0  0  0  0  0  0  0  0  0
   19.0146   18.1612   21.1708 H   0  0  0  0  0  0  0  0  0  0  0  0
   19.7327   18.4471   19.1486 C   0  0  0  0  0  0  0  0  0  0  0  0
   20.3387   17.5324   19.1117 H   0  0  0  0  0  0  0  0  0  0  0  0
   20.2290   19.2108   18.5357 H   0  0  0  0  0  0  0  0  0  0  0  0
   18.7609   18.2260   18.6885 H   0  0  0  0  0  0  0  0  0  0  0  0
   19.5878   19.2231   27.5491 C   0  0  0  0  0  0  0  0  0  0  0  0
   19.0072   20.1474   27.5091 H   0  0  0  0  0  0  0  0  0  0  0  0
   19.1562   18.5482   28.2917 H   0  0  0  0  0  0  0  0  0  0  0  0
   20.6237   19.4478   27.8129 H   0  0  0  0  0  0  0  0  0  0  0  0
  1  2  1  0  0  0  0
  1  3  1  0  0  0  0
  1  4  1  0  0  0  0
  4  5  1  0  0  0  0
  4  6  1  0  0  0  0
  4  7  1  0  0  0  0
  7  8  1  0  0  0  0
  7  9  1  0  0  0  0
  7 10  1  0  0  0  0
 10 11  1  0  0  0  0
 10 12  1  0  0  0  0
 10 13  1  0  0  0  0
 13 14  1  0  0  0  0
 13 15  1  0  0  0  0
 13 16  1  0  0  0  0
 16 17  1  0  0  0  0
 16 18  1  0  0  0  0
 16 19  1  0  0  0  0
 19 20  1  0  0  0  0
 19 21  1  0  0  0  0
 19 22  1  0  0  0  0
  1 23  1  0  0  0  0
 23 24  1  0  0  0  0
 23 25  1  0  0  0  0
 23 26  1  0  0  0  0
M  END
> <VM2 Rank>
13

> <Conf_Id>
158

> <Probability>
1.99

> <Sum Probability>
40.12

> <Delta G>
0.759

> <G>
76.225

> <E>
43.964

> <-TS>
32.261

> <U+W>
22.502

> <U>
71.349

> <W>
-48.846

> <W(PB)>
-51.157

> <W(SA)>
2.311

> <Valence>
2.262

> <Coulomb>
68.807

> <VdW>
0.280

> <VdW6>
-5.916

> <VdW12>
6.196

> <Bond>
0.164

> <Angle>
0.622

> <Pdih>
1.475

> <Idih>
0.000

> <Tether>
0.000

$$$$
VeraChem MOL file


 26 25  0  0  0  0  0  0  0  0999 V2000     
   20.4397   18.6413   26.2151 N   0  3  0  0  0  0  0  0  0  0  0  0
   21.4536   18.5934   26.0292 H   0  0  0  0  0  0  0  0  0  0  0  0
   20.1128   17.6625   26.2084 H   0  0  0  0  0  0  0  0  0  0  0  0
   19.7447   19.4322   25.1250 C   0  0  0  0  0  0  0  0  0  0  0  0
   20.1235   20.4568   25.1607 H   0  0  0  0  0  0  0  0  0  0  0  0
   18.6764   19.4519   25.3546 H   0  0  0  0  0  0  0  0  0  0  0  0
   19.9612   18.8488   23.7169 C   0  0  0  0  0  0  0  0  0  0  0  0
   21.0374   18.8167   23.5055 H   0  0  0  0  0  0  0  0  0  0  0  0
   19.5941   17.8142   23.6905 H   0  0  0  0  0  0  0  0  0  0  0  0
   19.2313   19.6882   22.6417 C   0  0  0  0  0  0  0  0  0  0  0  0
   19.6329   20.7111   22.6343 H   0  0  0  0  0  0  0  0  0  0  0  0
   18.1711   19.7760   22.9172 H   0  0  0  0  0  0  0  0  0  0  0  0
   19.3202   19.0854   21.2178 C   0  0  0  0  0  0  0  0  0  0  0  0
   18.9024   18.0691   21.2212 H   0  0  0  0  0  0  0  0  0  0  0  0
   18.6812   19.6782   20.5487 H   0  0  0  0  0  0  0  0  0  0  0  0
   20.7572   19.0568   20.6450 C   0  0  0  0  0  0  0  0  0  0  0  0
   21.3964   18.4049   21.2551 H   0  0  0  0  0  0  0  0  0  0  0  0
   21.1947   20.0640   20.6892 H   0  0  0  0  0  0  0  0  0  0  0  0
   20.7785   18.5540   19.1856 C   0  0  0  0  0  0  0  0  0  0  0  0
   20.3742   17.5360   19.1130 H   0  0  0  0  0  0  0  0  0  0  0  0
   21.8047   18.5373   18.7962 H   0  0  0  0  0  0  0  0  0  0  0  0
   20.1821   19.2059   18.5340 H   0  0  0  0  0  0  0  0  0  0  0  0
   20.1751   19.2833   27.5699 C   0  0  0  0  0  0  0  0  0  0  0  0
   20.5588   20.3059   27.5638 H   0  0  0  0  0  0  0  0  0  0  0  0
   19.0994   19.2926   27.7590 H   0  0  0  0  0  0  0  0  0  0  0  0
   20.6809   18.7041   28.3457 H   0  0  0  0  0  0  0  0  0  0  0  0
  1  2  1  0  0  0  0
  1  3  1  0  0  0  0
  1  4  1  0  0  0  0
  4  5  1  0  0  0  0
  4  6  1  0  0  0  0
  4  7  1  0  0  0  0
  7  8  1  0  0  0  0
  7  9  1  0  0  0  0
  7 10  1  0  0  0  0
 10 11  1  0  0  0  0
 10 12  1  0  0  0  0
 10 13  1  0  0  0  0
 13 14  1  0  0  0  0
 13 15  1  0  0  0  0
 13 16  1  0  0  0  0
 16 17  1  0  0  0  0
 16 18  1  0  0  0  0
 16 19  1  0  0  0  0
 19 20  1  0  0  0  0
 19 21  1  0  0  0  0
 19 22  1  0  0  0  0
  1 23  1  0  0  0  0
 23 24  1  0  0  0  0
 23 25  1  0  0  0  0
 23 26  1  0  0  0  0
M  END
> <VM2 Rank>
14

> <Conf_Id>
1230

> <Probability>
1.96

> <Sum Probability>
42.08

> <Delta G>
0.767

> <G>
76.233

> <E>
43.972

> <-TS>
32.261

> <U+W>
22.511

> <U>
71.349

> <W>
-48.838

> <W(PB)>
-51.151

> <W(SA)>
2.313

> <Valence>
2.262

> <Coulomb>
68.807

> <VdW>
0.280

> <VdW6>
-5.916

> <VdW12>
6.195

> <Bond>
0.164

> <Angle>
0.622

> <Pdih>
1.475

> <Idih>
0.000

> <Tether>
0.000

$$$$
VeraChem MOL file


 26 25  0  0  0  0  0  0  0  0999 V2000     
   19.6327   18.3062   26.1788 N   0  3  0  0  0  0  0  0  0  0  0  0
   20.3993   17.6165   26.2115 H   0  0  0  0  0  0  0  0  0  0  0  0
   18.7853   17.7747   26.4346 H   0  0  0  0  0  0  0  0  0  0  0  0
   19.4812   18.8572   24.7707 C   0  0  0  0  0  0  0  0  0  0  0  0
   18.6944   19.6155   24.7888 H   0  0  0  0  0  0  0  0  0  0  0  0
   19.1438   18.0331   24.1378 H   0  0  0  0  0  0  0  0  0  0  0  0
   20.7733   19.4555   24.1743 C   0  0  0  0  0  0  0  0  0  0  0  0
   21.1173   20.2846   24.8058 H   0  0  0  0  0  0  0  0  0  0  0  0
   21.5696   18.6996   24.1877 H   0  0  0  0  0  0  0  0  0  0  0  0
   20.5784   19.9794   22.7317 C   0  0  0  0  0  0  0  0  0  0  0  0
   21.5052   20.4738   22.4090 H   0  0  0  0  0  0  0  0  0  0  0  0
   19.7966   20.7517   22.7252 H   0  0  0  0  0  0  0  0  0  0  0  0
   20.2193   18.8635   21.7210 C   0  0  0  0  0  0  0  0  0  0  0  0
   20.9848   18.0759   21.7560 H   0  0  0  0  0  0  0  0  0  0  0  0
   19.2669   18.3943   22.0016 H   0  0  0  0  0  0  0  0  0  0  0  0
   20.1088   19.4085   20.2795 C   0  0  0  0  0  0  0  0  0  0  0  0
   21.0599   19.8733   19.9840 H   0  0  0  0  0  0  0  0  0  0  0  0
   19.3447   20.1976   20.2388 H   0  0  0  0  0  0  0  0  0  0  0  0
   19.7491   18.2952   19.2725 C   0  0  0  0  0  0  0  0  0  0  0  0
   19.6757   18.7014   18.2553 H   0  0  0  0  0  0  0  0  0  0  0  0
   18.7844   17.8341   19.5212 H   0  0  0  0  0  0  0  0  0  0  0  0
   20.5131   17.5069   19.2658 H   0  0  0  0  0  0  0  0  0  0  0  0
   19.8653   19.4245   27.1885 C   0  0  0  0  0  0  0  0  0  0  0  0
   19.0309   20.1278   27.1435 H   0  0  0  0  0  0  0  0  0  0  0  0
   19.9303   18.9934   28.1900 H   0  0  0  0  0  0  0  0  0  0  0  0
   20.7979   19.9396   26.9500 H   0  0  0  0  0  0  0  0  0  0  0  0
  1  2  1  0  0  0  0
  1  3  1  0  0  0  0
  1  4  1  0  0  0  0
  4  5  1  0  0  0  0
  4  6  1  0  0  0  0
  4  7  1  0  0  0  0
  7  8  1  0  0  0  0
  7  9  1  0  0  0  0
  7 10  1  0  0  0  0
 10 11  1  0  0  0  0
 10 12  1  0  0  0  0
 10 13  1  0  0  0  0
 13 14  1  0  0  0  0
 13 15  1  0  0  0  0
 13 16  1  0  0  0  0
 16 17  1  0  0  0  0
 16 18  1  0  0  0  0
 16 19  1  0  0  0  0
 19 20  1  0  0  0  0
 19 21  1  0  0  0  0
 19 22  1  0  0  0  0
  1 23  1  0  0  0  0
 23 24  1  0  0  0  0
 23 25  1  0  0  0  0
 23 26  1  0  0  0  0
M  END
> <VM2 Rank>
15

> <Conf_Id>
1304

> <Probability>
1.83

> <Sum Probability>
43.91

> <Delta G>
0.809

> <G>
76.275

> <E>
43.847

> <-TS>
32.428

> <U+W>
22.385

> <U>
71.628

> <W>
-49.242

> <W(PB)>
-51.545

> <W(SA)>
2.302

> <Valence>
2.314

> <Coulomb>
68.823

> <VdW>
0.491

> <VdW6>
-6.572

> <VdW12>
7.063

> <Bond>
0.188

> <Angle>
0.606

> <Pdih>
1.519

> <Idih>
0.000

> <Tether>
0.000

$$$$
VeraChem MOL file


 26 25  0  0  0  0  0  0  0  0999 V2000     
   20.4122   18.3858   26.2064 N   0  3  0  0  0  0  0  0  0  0  0  0
   21.3294   18.0344   26.5247 H   0  0  0  0  0  0  0  0  0  0  0  0
   19.8000   17.5555   26.1905 H   0  0  0  0  0  0  0  0  0  0  0  0
   20.5476   18.9659   24.8084 C   0  0  0  0  0  0  0  0  0  0  0  0
   21.0878   18.2313   24.2067 H   0  0  0  0  0  0  0  0  0  0  0  0
   21.1618   19.8673   24.8760 H   0  0  0  0  0  0  0  0  0  0  0  0
   19.2062   19.2953   24.1187 C   0  0  0  0  0  0  0  0  0  0  0  0
   18.5800   18.3941   24.0817 H   0  0  0  0  0  0  0  0  0  0  0  0
   18.6586   20.0334   24.7187 H   0  0  0  0  0  0  0  0  0  0  0  0
   19.3919   19.8582   22.6897 C   0  0  0  0  0  0  0  0  0  0  0  0
   20.0002   20.7724   22.7324 H   0  0  0  0  0  0  0  0  0  0  0  0
   18.4093   20.1576   22.2993 H   0  0  0  0  0  0  0  0  0  0  0  0
   20.0388   18.8450   21.7146 C   0  0  0  0  0  0  0  0  0  0  0  0
   21.0443   18.5757   22.0646 H   0  0  0  0  0  0  0  0  0  0  0  0
   19.4475   17.9189   21.7014 H   0  0  0  0  0  0  0  0  0  0  0  0
   20.1378   19.4116   20.2806 C   0  0  0  0  0  0  0  0  0  0  0  0
   20.7278   20.3389   20.2879 H   0  0  0  0  0  0  0  0  0  0  0  0
   19.1355   19.6768   19.9158 H   0  0  0  0  0  0  0  0  0  0  0  0
   20.7846   18.4011   19.3092 C   0  0  0  0  0  0  0  0  0  0  0  0
   20.8456   18.8211   18.2968 H   0  0  0  0  0  0  0  0  0  0  0  0
   20.1979   17.4748   19.2545 H   0  0  0  0  0  0  0  0  0  0  0  0
   21.8027   18.1425   19.6282 H   0  0  0  0  0  0  0  0  0  0  0  0
   19.8889   19.4271   27.1893 C   0  0  0  0  0  0  0  0  0  0  0  0
   19.8422   18.9848   28.1869 H   0  0  0  0  0  0  0  0  0  0  0  0
   20.5654   20.2845   27.1976 H   0  0  0  0  0  0  0  0  0  0  0  0
   18.8906   19.7453   26.8825 H   0  0  0  0  0  0  0  0  0  0  0  0
  1  2  1  0  0  0  0
  1  3  1  0  0  0  0
  1  4  1  0  0  0  0
  4  5  1  0  0  0  0
  4  6  1  0  0  0  0
  4  7  1  0  0  0  0
  7  8  1  0  0  0  0
  7  9  1  0  0  0  0
  7 10  1  0  0  0  0
 10 11  1  0  0  0  0
 10 12  1  0  0  0  0
 10 13  1  0  0  0  0
 13 14  1  0  0  0  0
 13 15  1  0  0  0  0
 13 16  1  0  0  0  0
 16 17  1  0  0  0  0
 16 18  1  0  0  0  0
 16 19  1  0  0  0  0
 19 20  1  0  0  0  0
 19 21  1  0  0  0  0
 19 22  1  0  0  0  0
  1 23  1  0  0  0  0
 23 24  1  0  0  0  0
 23 25  1  0  0  0  0
 23 26  1  0  0  0  0
M  END
> <VM2 Rank>
16

> <Conf_Id>
1270

> <Probability>
1.73

> <Sum Probability>
45.64

> <Delta G>
0.843

> <G>
76.309

> <E>
43.882

> <-TS>
32.428

> <U+W>
22.420

> <U>
71.628

> <W>
-49.208

> <W(PB)>
-51.516

> <W(SA)>
2.308

> <Valence>
2.314

> <Coulomb>
68.823

> <VdW>
0.491

> <VdW6>
-6.572

> <VdW12>
7.063

> <Bond>
0.188

> <Angle>
0.606

> <Pdih>
1.519

> <Idih>
0.000

> <Tether>
0.000

$$$$
VeraChem MOL file


 26 25  0  0  0  0  0  0  0  0999 V2000     
   19.5681   18.5759   26.4542 N   0  3  0  0  0  0  0  0  0  0  0  0
   20.0461   17.6618   26.4748 H   0  0  0  0  0  0  0  0  0  0  0  0
   18.7210   18.4463   27.0302 H   0  0  0  0  0  0  0  0  0  0  0  0
   19.1664   18.9269   25.0313 C   0  0  0  0  0  0  0  0  0  0  0  0
   18.7012   19.9157   25.0471 H   0  0  0  0  0  0  0  0  0  0  0  0
   18.4105   18.2016   24.7193 H   0  0  0  0  0  0  0  0  0  0  0  0
   20.3268   18.9092   24.0156 C   0  0  0  0  0  0  0  0  0  0  0  0
   21.0799   19.6555   24.2997 H   0  0  0  0  0  0  0  0  0  0  0  0
   20.8192   17.9281   24.0423 H   0  0  0  0  0  0  0  0  0  0  0  0
   19.8266   19.2007   22.5834 C   0  0  0  0  0  0  0  0  0  0  0  0
   19.3324   20.1819   22.5612 H   0  0  0  0  0  0  0  0  0  0  0  0
   19.0683   18.4553   22.3096 H   0  0  0  0  0  0  0  0  0  0  0  0
   20.9828   19.1800   21.5544 C   0  0  0  0  0  0  0  0  0  0  0  0
   21.7656   19.8792   21.8798 H   0  0  0  0  0  0  0  0  0  0  0  0
   21.4465   18.1839   21.5375 H   0  0  0  0  0  0  0  0  0  0  0  0
   20.5418   19.5688   20.1224 C   0  0  0  0  0  0  0  0  0  0  0  0
   21.4340   19.6322   19.4838 H   0  0  0  0  0  0  0  0  0  0  0  0
   20.0980   20.5742   20.1301 H   0  0  0  0  0  0  0  0  0  0  0  0
   19.5482   18.5667   19.4914 C   0  0  0  0  0  0  0  0  0  0  0  0
   18.5903   18.5572   20.0259 H   0  0  0  0  0  0  0  0  0  0  0  0
   19.9567   17.5478   19.4983 H   0  0  0  0  0  0  0  0  0  0  0  0
   19.3403   18.8374   18.4481 H   0  0  0  0  0  0  0  0  0  0  0  0
   20.4473   19.6618   27.0642 C   0  0  0  0  0  0  0  0  0  0  0  0
   19.9089   20.6118   27.0457 H   0  0  0  0  0  0  0  0  0  0  0  0
   20.6837   19.3922   28.0960 H   0  0  0  0  0  0  0  0  0  0  0  0
   21.3701   19.7471   26.4869 H   0  0  0  0  0  0  0  0  0  0  0  0
  1  2  1  0  0  0  0
  1  3  1  0  0  0  0
  1  4  1  0  0  0  0
  4  5  1  0  0  0  0
  4  6  1  0  0  0  0
  4  7  1  0  0  0  0
  7  8  1  0  0  0  0
  7  9  1  0  0  0  0
  7 10  1  0  0  0  0
 10 11  1  0  0  0  0
 10 12  1  0  0  0  0
 10 13  1  0  0  0  0
 13 14  1  0  0  0  0
 13 15  1  0  0  0  0
 13 16  1  0  0  0  0
 16 17  1  0  0  0  0
 16 18  1  0  0  0  0
 16 19  1  0  0  0  0
 19 20  1  0  0  0  0
 19 21  1  0  0  0  0
 19 22  1  0  0  0  0
  1 23  1  0  0  0  0
 23 24  1  0  0  0  0
 23 25  1  0  0  0  0
 23 26  1  0  0  0  0
M  END
> <VM2 Rank>
17

> <Conf_Id>
573

> <Probability>
1.56

> <Sum Probability>
47.21

> <Delta G>
0.903

> <G>
76.370

> <E>
43.927

> <-TS>
32.443

> <U+W>
22.465

> <U>
71.429

> <W>
-48.965

> <W(PB)>
-51.237

> <W(SA)>
2.272

> <Valence>
2.501

> <Coulomb>
68.364

> <VdW>
0.564

> <VdW6>
-6.586

> <VdW12>
7.150

> <Bond>
0.197

> <Angle>
0.716

> <Pdih>
1.588

> <Idih>
0.000

> <Tether>
0.000

$$$$
VeraChem MOL file


 26 25  0  0  0  0  0  0  0  0999 V2000     
   19.4776   19.1688   26.4941 N   0  3  0  0  0  0  0  0  0  0  0  0
   19.0864   18.2210   26.6083 H   0  0  0  0  0  0  0  0  0  0  0  0
   18.8999   19.7703   27.1027 H   0  0  0  0  0  0  0  0  0  0  0  0
   19.3395   19.6239   25.0509 C   0  0  0  0  0  0  0  0  0  0  0  0
   19.7997   20.6114   24.9638 H   0  0  0  0  0  0  0  0  0  0  0  0
   18.2713   19.7284   24.8444 H   0  0  0  0  0  0  0  0  0  0  0  0
   19.9581   18.6636   24.0147 C   0  0  0  0  0  0  0  0  0  0  0  0
   21.0378   18.5729   24.1905 H   0  0  0  0  0  0  0  0  0  0  0  0
   19.5254   17.6626   24.1428 H   0  0  0  0  0  0  0  0  0  0  0  0
   19.7116   19.1568   22.5716 C   0  0  0  0  0  0  0  0  0  0  0  0
   20.1375   20.1627   22.4592 H   0  0  0  0  0  0  0  0  0  0  0  0
   18.6308   19.2462   22.3948 H   0  0  0  0  0  0  0  0  0  0  0  0
   20.3305   18.2011   21.5231 C   0  0  0  0  0  0  0  0  0  0  0  0
   21.4188   18.1494   21.6649 H   0  0  0  0  0  0  0  0  0  0  0  0
   19.9484   17.1851   21.6937 H   0  0  0  0  0  0  0  0  0  0  0  0
   20.0188   18.6036   20.0611 C   0  0  0  0  0  0  0  0  0  0  0  0
   18.9310   18.6346   19.9078 H   0  0  0  0  0  0  0  0  0  0  0  0
   20.4009   17.8208   19.3909 H   0  0  0  0  0  0  0  0  0  0  0  0
   20.6406   19.9578   19.6501 C   0  0  0  0  0  0  0  0  0  0  0  0
   21.7249   19.9629   19.8212 H   0  0  0  0  0  0  0  0  0  0  0  0
   20.1996   20.7912   20.2108 H   0  0  0  0  0  0  0  0  0  0  0  0
   20.4686   20.1513   18.5833 H   0  0  0  0  0  0  0  0  0  0  0  0
   20.9313   19.2143   26.9514 C   0  0  0  0  0  0  0  0  0  0  0  0
   21.3117   20.2316   26.8367 H   0  0  0  0  0  0  0  0  0  0  0  0
   20.9850   18.9168   28.0010 H   0  0  0  0  0  0  0  0  0  0  0  0
   21.5233   18.5264   26.3445 H   0  0  0  0  0  0  0  0  0  0  0  0
  1  2  1  0  0  0  0
  1  3  1  0  0  0  0
  1  4  1  0  0  0  0
  4  5  1  0  0  0  0
  4  6  1  0  0  0  0
  4  7  1  0  0  0  0
  7  8  1  0  0  0  0
  7  9  1  0  0  0  0
  7 10  1  0  0  0  0
 10 11  1  0  0  0  0
 10 12  1  0  0  0  0
 10 13  1  0  0  0  0
 13 14  1  0  0  0  0
 13 15  1  0  0  0  0
 13 16  1  0  0  0  0
 16 17  1  0  0  0  0
 16 18  1  0  0  0  0
 16 19  1  0  0  0  0
 19 20  1  0  0  0  0
 19 21  1  0  0  0  0
 19 22  1  0  0  0  0
  1 23  1  0  0  0  0
 23 24  1  0  0  0  0
 23 25  1  0  0  0  0
 23 26  1  0  0  0  0
M  END
> <VM2 Rank>
18

> <Conf_Id>
1018

> <Probability>
1.50

> <Sum Probability>
48.71

> <Delta G>
0.929

> <G>
76.395

> <E>
43.952

> <-TS>
32.443

> <U+W>
22.490

> <U>
71.422

> <W>
-48.932

> <W(PB)>
-51.231

> <W(SA)>
2.299

> <Valence>
2.501

> <Coulomb>
68.359

> <VdW>
0.562

> <VdW6>
-6.587

> <VdW12>
7.149

> <Bond>
0.197

> <Angle>
0.717

> <Pdih>
1.587

> <Idih>
0.000

> <Tether>
0.000

$$$$
VeraChem MOL file


 26 25  0  0  0  0  0  0  0  0999 V2000     
   20.3673   19.2601   26.5257 N   0  3  0  0  0  0  0  0  0  0  0  0
   20.7669   19.9619   27.1689 H   0  0  0  0  0  0  0  0  0  0  0  0
   20.9337   18.4105   26.6738 H   0  0  0  0  0  0  0  0  0  0  0  0
   20.5110   19.7442   25.0924 C   0  0  0  0  0  0  0  0  0  0  0  0
   21.5476   20.0647   24.9606 H   0  0  0  0  0  0  0  0  0  0  0  0
   19.8672   20.6182   24.9662 H   0  0  0  0  0  0  0  0  0  0  0  0
   20.1743   18.6857   24.0224 C   0  0  0  0  0  0  0  0  0  0  0  0
   20.7911   17.7925   24.1875 H   0  0  0  0  0  0  0  0  0  0  0  0
   19.1259   18.3765   24.1228 H   0  0  0  0  0  0  0  0  0  0  0  0
   20.4159   19.2292   22.5966 C   0  0  0  0  0  0  0  0  0  0  0  0
   21.4657   19.5374   22.4952 H   0  0  0  0  0  0  0  0  0  0  0  0
   19.8035   20.1284   22.4474 H   0  0  0  0  0  0  0  0  0  0  0  0
   20.0790   18.1753   21.5141 C   0  0  0  0  0  0  0  0  0  0  0  0
   20.6465   17.2568   21.7184 H   0  0  0  0  0  0  0  0  0  0  0  0
   19.0166   17.9026   21.5799 H   0  0  0  0  0  0  0  0  0  0  0  0
   20.4039   18.6432   20.0748 C   0  0  0  0  0  0  0  0  0  0  0  0
   20.2367   17.8040   19.3851 H   0  0  0  0  0  0  0  0  0  0  0  0
   21.4708   18.8957   19.9978 H   0  0  0  0  0  0  0  0  0  0  0  0
   19.5504   19.8458   19.6115 C   0  0  0  0  0  0  0  0  0  0  0  0
   18.4784   19.6294   19.7062 H   0  0  0  0  0  0  0  0  0  0  0  0
   19.7536   20.0779   18.5580 H   0  0  0  0  0  0  0  0  0  0  0  0
   19.7724   20.7474   20.1957 H   0  0  0  0  0  0  0  0  0  0  0  0
   18.9062   19.0065   26.8796 C   0  0  0  0  0  0  0  0  0  0  0  0
   18.5101   18.2171   26.2377 H   0  0  0  0  0  0  0  0  0  0  0  0
   18.8406   18.6968   27.9250 H   0  0  0  0  0  0  0  0  0  0  0  0
   18.3363   19.9262   26.7312 H   0  0  0  0  0  0  0  0  0  0  0  0
  1  2  1  0  0  0  0
  1  3  1  0  0  0  0
  1  4  1  0  0  0  0
  4  5  1  0  0  0  0
  4  6  1  0  0  0  0
  4  7  1  0  0  0  0
  7  8  1  0  0  0  0
  7  9  1  0  0  0  0
  7 10  1  0  0  0  0
 10 11  1  0  0  0  0
 10 12  1  0  0  0  0
 10 13  1  0  0  0  0
 13 14  1  0  0  0  0
 13 15  1  0  0  0  0
 13 16  1  0  0  0  0
 16 17  1  0  0  0  0
 16 18  1  0  0  0  0
 16 19  1  0  0  0  0
 19 20  1  0  0  0  0
 19 21  1  0  0  0  0
 19 22  1  0  0  0  0
  1 23  1  0  0  0  0
 23 24  1  0  0  0  0
 23 25  1  0  0  0  0
 23 26  1  0  0  0  0
M  END
> <VM2 Rank>
19

> <Conf_Id>
574

> <Probability>
1.49

> <Sum Probability>
50.20

> <Delta G>
0.932

> <G>
76.398

> <E>
43.955

> <-TS>
32.443

> <U+W>
22.493

> <U>
71.422

> <W>
-48.929

> <W(PB)>
-51.221

> <W(SA)>
2.292

> <Valence>
2.501

> <Coulomb>
68.359

> <VdW>
0.562

> <VdW6>
-6.587

> <VdW12>
7.149

> <Bond>
0.197

> <Angle>
0.717

> <Pdih>
1.587

> <Idih>
0.000

> <Tether>
0.000

$$$$
VeraChem MOL file


 26 25  0  0  0  0  0  0  0  0999 V2000     
   20.4018   18.6611   26.4838 N   0  3  0  0  0  0  0  0  0  0  0  0
   21.2151   18.7015   27.1186 H   0  0  0  0  0  0  0  0  0  0  0  0
   20.1184   17.6691   26.4773 H   0  0  0  0  0  0  0  0  0  0  0  0
   20.8229   19.0964   25.0901 C   0  0  0  0  0  0  0  0  0  0  0  0
   21.7297   18.5413   24.8369 H   0  0  0  0  0  0  0  0  0  0  0  0
   21.0762   20.1588   25.1313 H   0  0  0  0  0  0  0  0  0  0  0  0
   19.7640   18.8518   23.9957 C   0  0  0  0  0  0  0  0  0  0  0  0
   19.4794   17.7913   23.9948 H   0  0  0  0  0  0  0  0  0  0  0  0
   18.8576   19.4285   24.2210 H   0  0  0  0  0  0  0  0  0  0  0  0
   20.2941   19.2486   22.5999 C   0  0  0  0  0  0  0  0  0  0  0  0
   21.2046   18.6737   22.3853 H   0  0  0  0  0  0  0  0  0  0  0  0
   20.5802   20.3096   22.6054 H   0  0  0  0  0  0  0  0  0  0  0  0
   19.2408   19.0021   21.4927 C   0  0  0  0  0  0  0  0  0  0  0  0
   18.9902   17.9331   21.4506 H   0  0  0  0  0  0  0  0  0  0  0  0
   18.3122   19.5266   21.7574 H   0  0  0  0  0  0  0  0  0  0  0  0
   19.6935   19.4821   20.0923 C   0  0  0  0  0  0  0  0  0  0  0  0
   19.9238   20.5563   20.1239 H   0  0  0  0  0  0  0  0  0  0  0  0
   18.8537   19.3689   19.3925 H   0  0  0  0  0  0  0  0  0  0  0  0
   20.9104   18.7055   19.5395 C   0  0  0  0  0  0  0  0  0  0  0  0
   21.1319   19.0202   18.5115 H   0  0  0  0  0  0  0  0  0  0  0  0
   20.7162   17.6252   19.5249 H   0  0  0  0  0  0  0  0  0  0  0  0
   21.8107   18.8854   20.1399 H   0  0  0  0  0  0  0  0  0  0  0  0
   19.2805   19.5422   27.0229 C   0  0  0  0  0  0  0  0  0  0  0  0
   19.6155   20.5816   27.0355 H   0  0  0  0  0  0  0  0  0  0  0  0
   18.4024   19.4432   26.3817 H   0  0  0  0  0  0  0  0  0  0  0  0
   19.0318   19.2228   28.0374 H   0  0  0  0  0  0  0  0  0  0  0  0
  1  2  1  0  0  0  0
  1  3  1  0  0  0  0
  1  4  1  0  0  0  0
  4  5  1  0  0  0  0
  4  6  1  0  0  0  0
  4  7  1  0  0  0  0
  7  8  1  0  0  0  0
  7  9  1  0  0  0  0
  7 10  1  0  0  0  0
 10 11  1  0  0  0  0
 10 12  1  0  0  0  0
 10 13  1  0  0  0  0
 13 14  1  0  0  0  0
 13 15  1  0  0  0  0
 13 16  1  0  0  0  0
 16 17  1  0  0  0  0
 16 18  1  0  0  0  0
 16 19  1  0  0  0  0
 19 20  1  0  0  0  0
 19 21  1  0  0  0  0
 19 22  1  0  0  0  0
  1 23  1  0  0  0  0
 23 24  1  0  0  0  0
 23 25  1  0  0  0  0
 23 26  1  0  0  0  0
M  END
> <VM2 Rank>
20

> <Conf_Id>
1038

> <Probability>
1.44

> <Sum Probability>
51.63

> <Delta G>
0.954

> <G>
76.420

> <E>
43.977

> <-TS>
32.443

> <U+W>
22.515

> <U>
71.429

> <W>
-48.914

> <W(PB)>
-51.188

> <W(SA)>
2.274

> <Valence>
2.501

> <Coulomb>
68.364

> <VdW>
0.564

> <VdW6>
-6.585

> <VdW12>
7.149

> <Bond>
0.197

> <Angle>
0.716

> <Pdih>
1.588

> <Idih>
0.000

> <Tether>
0.000

$$$$
VeraChem MOL file


 26 25  0  0  0  0  0  0  0  0999 V2000     
   20.0415   18.7971   26.4300 N   0  3  0  0  0  0  0  0  0  0  0  0
   20.4503   17.8499   26.4152 H   0  0  0  0  0  0  0  0  0  0  0  0
   19.4594   18.8224   27.2823 H   0  0  0  0  0  0  0  0  0  0  0  0
   19.1630   19.0093   25.2083 C   0  0  0  0  0  0  0  0  0  0  0  0
   18.7831   20.0336   25.2407 H   0  0  0  0  0  0  0  0  0  0  0  0
   18.3121   18.3292   25.2987 H   0  0  0  0  0  0  0  0  0  0  0  0
   19.8675   18.7536   23.8604 C   0  0  0  0  0  0  0  0  0  0  0  0
   20.7053   19.4524   23.7504 H   0  0  0  0  0  0  0  0  0  0  0  0
   20.2883   17.7395   23.8567 H   0  0  0  0  0  0  0  0  0  0  0  0
   18.8866   18.9146   22.6750 C   0  0  0  0  0  0  0  0  0  0  0  0
   18.5020   19.9437   22.6498 H   0  0  0  0  0  0  0  0  0  0  0  0
   18.0161   18.2649   22.8417 H   0  0  0  0  0  0  0  0  0  0  0  0
   19.5086   18.5590   21.3019 C   0  0  0  0  0  0  0  0  0  0  0  0
   19.8775   17.5242   21.3214 H   0  0  0  0  0  0  0  0  0  0  0  0
   18.7149   18.5882   20.5426 H   0  0  0  0  0  0  0  0  0  0  0  0
   20.6497   19.5117   20.8724 C   0  0  0  0  0  0  0  0  0  0  0  0
   21.4899   19.4393   21.5757 H   0  0  0  0  0  0  0  0  0  0  0  0
   20.2966   20.5519   20.9035 H   0  0  0  0  0  0  0  0  0  0  0  0
   21.1580   19.1868   19.4514 C   0  0  0  0  0  0  0  0  0  0  0  0
   21.5459   18.1613   19.3959 H   0  0  0  0  0  0  0  0  0  0  0  0
   21.9684   19.8693   19.1641 H   0  0  0  0  0  0  0  0  0  0  0  0
   20.3540   19.2888   18.7109 H   0  0  0  0  0  0  0  0  0  0  0  0
   21.1330   19.8579   26.5175 C   0  0  0  0  0  0  0  0  0  0  0  0
   21.7176   19.6946   27.4257 H   0  0  0  0  0  0  0  0  0  0  0  0
   21.7836   19.7809   25.6440 H   0  0  0  0  0  0  0  0  0  0  0  0
   20.6705   20.8468   26.5497 H   0  0  0  0  0  0  0  0  0  0  0  0
  1  2  1  0  0  0  0
  1  3  1  0  0  0  0
  1  4  1  0  0  0  0
  4  5  1  0  0  0  0
  4  6  1  0  0  0  0
  4  7  1  0  0  0  0
  7  8  1  0  0  0  0
  7  9  1  0  0  0  0
  7 10  1  0  0  0  0
 10 11  1  0  0  0  0
 10 12  1  0  0  0  0
 10 13  1  0  0  0  0
 13 14  1  0  0  0  0
 13 15  1  0  0  0  0
 13 16  1  0  0  0  0
 16 17  1  0  0  0  0
 16 18  1  0  0  0  0
 16 19  1  0  0  0  0
 19 20  1  0  0  0  0
 19 21  1  0  0  0  0
 19 22  1  0  0  0  0
  1 23  1  0  0  0  0
 23 24  1  0  0  0  0
 23 25  1  0  0  0  0
 23 26  1  0  0  0  0
M  END
> <VM2 Rank>
21

> <Conf_Id>
1317

> <Probability>
1.38

> <Sum Probability>
53.01

> <Delta G>
0.978

> <G>
76.444

> <E>
44.012

> <-TS>
32.432

> <U+W>
22.551

> <U>
71.707

> <W>
-49.155

> <W(PB)>
-51.436

> <W(SA)>
2.281

> <Valence>
2.540

> <Coulomb>
68.632

> <VdW>
0.535

> <VdW6>
-6.648

> <VdW12>
7.183

> <Bond>
0.201

> <Angle>
0.741

> <Pdih>
1.598

> <Idih>
0.000

> <Tether>
0.000

$$$$
VeraChem MOL file


 26 25  0  0  0  0  0  0  0  0999 V2000     
   19.3814   18.7687   26.3198 N   0  3  0  0  0  0  0  0  0  0  0  0
   18.8437   17.9295   26.0532 H   0  0  0  0  0  0  0  0  0  0  0  0
   18.8521   19.1868   27.1014 H   0  0  0  0  0  0  0  0  0  0  0  0
   19.4346   19.7493   25.1601 C   0  0  0  0  0  0  0  0  0  0  0  0
   20.0421   20.6036   25.4694 H   0  0  0  0  0  0  0  0  0  0  0  0
   18.4150   20.1032   24.9873 H   0  0  0  0  0  0  0  0  0  0  0  0
   19.9890   19.1594   23.8473 C   0  0  0  0  0  0  0  0  0  0  0  0
   21.0251   18.8298   23.9974 H   0  0  0  0  0  0  0  0  0  0  0  0
   19.4020   18.2720   23.5801 H   0  0  0  0  0  0  0  0  0  0  0  0
   19.9389   20.1968   22.7008 C   0  0  0  0  0  0  0  0  0  0  0  0
   20.4611   21.1087   23.0225 H   0  0  0  0  0  0  0  0  0  0  0  0
   18.8968   20.4896   22.5111 H   0  0  0  0  0  0  0  0  0  0  0  0
   20.5861   19.6990   21.3848 C   0  0  0  0  0  0  0  0  0  0  0  0
   20.6088   20.5339   20.6707 H   0  0  0  0  0  0  0  0  0  0  0  0
   21.6338   19.4244   21.5702 H   0  0  0  0  0  0  0  0  0  0  0  0
   19.8407   18.5064   20.7395 C   0  0  0  0  0  0  0  0  0  0  0  0
   18.7808   18.7619   20.6015 H   0  0  0  0  0  0  0  0  0  0  0  0
   19.8740   17.6332   21.4045 H   0  0  0  0  0  0  0  0  0  0  0  0
   20.4552   18.1209   19.3769 C   0  0  0  0  0  0  0  0  0  0  0  0
   21.5084   17.8312   19.4867 H   0  0  0  0  0  0  0  0  0  0  0  0
   20.4030   18.9579   18.6685 H   0  0  0  0  0  0  0  0  0  0  0  0
   19.9170   17.2724   18.9350 H   0  0  0  0  0  0  0  0  0  0  0  0
   20.7820   18.3895   26.7878 C   0  0  0  0  0  0  0  0  0  0  0  0
   21.3122   17.8893   25.9750 H   0  0  0  0  0  0  0  0  0  0  0  0
   21.3196   19.2941   27.0803 H   0  0  0  0  0  0  0  0  0  0  0  0
   20.7022   17.7153   27.6434 H   0  0  0  0  0  0  0  0  0  0  0  0
  1  2  1  0  0  0  0
  1  3  1  0  0  0  0
  1  4  1  0  0  0  0
  4  5  1  0  0  0  0
  4  6  1  0  0  0  0
  4  7  1  0  0  0  0
  7  8  1  0  0  0  0
  7  9  1  0  0  0  0
  7 10  1  0  0  0  0
 10 11  1  0  0  0  0
 10 12  1  0  0  0  0
 10 13  1  0  0  0  0
 13 14  1  0  0  0  0
 13 15  1  0  0  0  0
 13 16  1  0  0  0  0
 16 17  1  0  0  0  0
 16 18  1  0  0  0  0
 16 19  1  0  0  0  0
 19 20  1  0  0  0  0
 19 21  1  0  0  0  0
 19 22  1  0  0  0  0
  1 23  1  0  0  0  0
 23 24  1  0  0  0  0
 23 25  1  0  0  0  0
 23 26  1  0  0  0  0
M  END
> <VM2 Rank>
22

> <Conf_Id>
550

> <Probability>
1.37

> <Sum Probability>
54.39

> <Delta G>
0.980

> <G>
76.446

> <E>
44.014

> <-TS>
32.433

> <U+W>
22.552

> <U>
71.722

> <W>
-49.171

> <W(PB)>
-51.486

> <W(SA)>
2.316

> <Valence>
2.539

> <Coulomb>
68.643

> <VdW>
0.540

> <VdW6>
-6.633

> <VdW12>
7.173

> <Bond>
0.200

> <Angle>
0.745

> <Pdih>
1.594

> <Idih>
0.000

> <Tether>
0.000

$$$$
VeraChem MOL file


 26 25  0  0  0  0  0  0  0  0999 V2000     
   20.5538   18.8870   26.3613 N   0  3  0  0  0  0  0  0  0  0  0  0
   20.9329   19.3968   27.1752 H   0  0  0  0  0  0  0  0  0  0  0  0
   21.2656   18.1741   26.1390 H   0  0  0  0  0  0  0  0  0  0  0  0
   20.3873   19.8455   25.1939 C   0  0  0  0  0  0  0  0  0  0  0  0
   21.3252   20.3972   25.0906 H   0  0  0  0  0  0  0  0  0  0  0  0
   19.6013   20.5590   25.4538 H   0  0  0  0  0  0  0  0  0  0  0  0
   20.0555   19.1662   23.8497 C   0  0  0  0  0  0  0  0  0  0  0  0
   20.8251   18.4158   23.6306 H   0  0  0  0  0  0  0  0  0  0  0  0
   19.0981   18.6352   23.9289 H   0  0  0  0  0  0  0  0  0  0  0  0
   19.9778   20.2008   22.7022 C   0  0  0  0  0  0  0  0  0  0  0  0
   20.9512   20.6970   22.5839 H   0  0  0  0  0  0  0  0  0  0  0  0
   19.2629   20.9879   22.9800 H   0  0  0  0  0  0  0  0  0  0  0  0
   19.5369   19.5932   21.3475 C   0  0  0  0  0  0  0  0  0  0  0  0
   18.5546   19.1139   21.4609 H   0  0  0  0  0  0  0  0  0  0  0  0
   19.3983   20.4118   20.6277 H   0  0  0  0  0  0  0  0  0  0  0  0
   20.5485   18.5778   20.7647 C   0  0  0  0  0  0  0  0  0  0  0  0
   20.6435   17.7108   21.4319 H   0  0  0  0  0  0  0  0  0  0  0  0
   21.5432   19.0404   20.6995 H   0  0  0  0  0  0  0  0  0  0  0  0
   20.1204   18.0870   19.3651 C   0  0  0  0  0  0  0  0  0  0  0  0
   19.1410   17.5924   19.4028 H   0  0  0  0  0  0  0  0  0  0  0  0
   20.8467   17.3660   18.9681 H   0  0  0  0  0  0  0  0  0  0  0  0
   20.0542   18.9226   18.6562 H   0  0  0  0  0  0  0  0  0  0  0  0
   19.2279   18.2325   26.7326 C   0  0  0  0  0  0  0  0  0  0  0  0
   18.5013   19.0094   26.9804 H   0  0  0  0  0  0  0  0  0  0  0  0
   18.8665   17.6424   25.8881 H   0  0  0  0  0  0  0  0  0  0  0  0
   19.3805   17.5815   27.5963 H   0  0  0  0  0  0  0  0  0  0  0  0
  1  2  1  0  0  0  0
  1  3  1  0  0  0  0
  1  4  1  0  0  0  0
  4  5  1  0  0  0  0
  4  6  1  0  0  0  0
  4  7  1  0  0  0  0
  7  8  1  0  0  0  0
  7  9  1  0  0  0  0
  7 10  1  0  0  0  0
 10 11  1  0  0  0  0
 10 12  1  0  0  0  0
 10 13  1  0  0  0  0
 13 14  1  0  0  0  0
 13 15  1  0  0  0  0
 13 16  1  0  0  0  0
 16 17  1  0  0  0  0
 16 18  1  0  0  0  0
 16 19  1  0  0  0  0
 19 20  1  0  0  0  0
 19 21  1  0  0  0  0
 19 22  1  0  0  0  0
  1 23  1  0  0  0  0
 23 24  1  0  0  0  0
 23 25  1  0  0  0  0
 23 26  1  0  0  0  0
M  END
> <VM2 Rank>
23

> <Conf_Id>
965

> <Probability>
1.33

> <Sum Probability>
55.71

> <Delta G>
1.002

> <G>
76.468

> <E>
44.035

> <-TS>
32.433

> <U+W>
22.573

> <U>
71.722

> <W>
-49.149

> <W(PB)>
-51.447

> <W(SA)>
2.298

> <Valence>
2.539

> <Coulomb>
68.643

> <VdW>
0.540

> <VdW6>
-6.633

> <VdW12>
7.173

> <Bond>
0.200

> <Angle>
0.745

> <Pdih>
1.594

> <Idih>
0.000

> <Tether>
0.000

$$$$
VeraChem MOL file


 26 25  0  0  0  0  0  0  0  0999 V2000     
   19.8964   18.7823   26.4248 N   0  3  0  0  0  0  0  0  0  0  0  0
   20.4002   18.9189   27.3156 H   0  0  0  0  0  0  0  0  0  0  0  0
   19.6898   17.7721   26.3884 H   0  0  0  0  0  0  0  0  0  0  0  0
   20.7971   19.1767   25.2662 C   0  0  0  0  0  0  0  0  0  0  0  0
   21.7596   18.6822   25.4209 H   0  0  0  0  0  0  0  0  0  0  0  0
   20.9587   20.2563   25.3177 H   0  0  0  0  0  0  0  0  0  0  0  0
   20.2551   18.7932   23.8741 C   0  0  0  0  0  0  0  0  0  0  0  0
   20.0495   17.7150   23.8483 H   0  0  0  0  0  0  0  0  0  0  0  0
   19.3030   19.3089   23.7007 H   0  0  0  0  0  0  0  0  0  0  0  0
   21.2637   19.1578   22.7592 C   0  0  0  0  0  0  0  0  0  0  0  0
   22.2337   18.6963   22.9910 H   0  0  0  0  0  0  0  0  0  0  0  0
   21.4330   20.2435   22.7536 H   0  0  0  0  0  0  0  0  0  0  0  0
   20.8241   18.6936   21.3485 C   0  0  0  0  0  0  0  0  0  0  0  0
   21.6467   18.8880   20.6464 H   0  0  0  0  0  0  0  0  0  0  0  0
   20.6716   17.6054   21.3495 H   0  0  0  0  0  0  0  0  0  0  0  0
   19.5469   19.3989   20.8333 C   0  0  0  0  0  0  0  0  0  0  0  0
   19.6795   20.4888   20.8816 H   0  0  0  0  0  0  0  0  0  0  0  0
   18.6916   19.1532   21.4767 H   0  0  0  0  0  0  0  0  0  0  0  0
   19.2154   18.9880   19.3827 C   0  0  0  0  0  0  0  0  0  0  0  0
   18.3060   19.4947   19.0344 H   0  0  0  0  0  0  0  0  0  0  0  0
   19.0476   17.9057   19.3076 H   0  0  0  0  0  0  0  0  0  0  0  0
   20.0320   19.2556   18.6995 H   0  0  0  0  0  0  0  0  0  0  0  0
   18.6093   19.5996   26.4280 C   0  0  0  0  0  0  0  0  0  0  0  0
   18.0078   19.3150   27.2942 H   0  0  0  0  0  0  0  0  0  0  0  0
   18.8587   20.6613   26.4854 H   0  0  0  0  0  0  0  0  0  0  0  0
   18.0507   19.3987   25.5118 H   0  0  0  0  0  0  0  0  0  0  0  0
  1  2  1  0  0  0  0
  1  3  1  0  0  0  0
  1  4  1  0  0  0  0
  4  5  1  0  0  0  0
  4  6  1  0  0  0  0
  4  7  1  0  0  0  0
  7  8  1  0  0  0  0
  7  9  1  0  0  0  0
  7 10  1  0  0  0  0
 10 11  1  0  0  0  0
 10 12  1  0  0  0  0
 10 13  1  0  0  0  0
 13 14  1  0  0  0  0
 13 15  1  0  0  0  0
 13 16  1  0  0  0  0
 16 17  1  0  0  0  0
 16 18  1  0  0  0  0
 16 19  1  0  0  0  0
 19 20  1  0  0  0  0
 19 21  1  0  0  0  0
 19 22  1  0  0  0  0
  1 23  1  0  0  0  0
 23 24  1  0  0  0  0
 23 25  1  0  0  0  0
 23 26  1  0  0  0  0
M  END
> <VM2 Rank>
24

> <Conf_Id>
816

> <Probability>
1.28

> <Sum Probability>
56.99

> <Delta G>
1.024

> <G>
76.490

> <E>
44.058

> <-TS>
32.431

> <U+W>
22.596

> <U>
71.707

> <W>
-49.111

> <W(PB)>
-51.412

> <W(SA)>
2.301

> <Valence>
2.540

> <Coulomb>
68.632

> <VdW>
0.535

> <VdW6>
-6.648

> <VdW12>
7.184

> <Bond>
0.201

> <Angle>
0.741

> <Pdih>
1.598

> <Idih>
0.000

> <Tether>
0.000

$$$$
VeraChem MOL file


 26 25  0  0  0  0  0  0  0  0999 V2000     
   19.2941   18.8527   25.6646 N   0  3  0  0  0  0  0  0  0  0  0  0
   19.2354   17.8227   25.6840 H   0  0  0  0  0  0  0  0  0  0  0  0
   18.6313   19.1539   24.9345 H   0  0  0  0  0  0  0  0  0  0  0  0
   20.7011   19.2882   25.3029 C   0  0  0  0  0  0  0  0  0  0  0  0
   21.3661   18.9494   26.1013 H   0  0  0  0  0  0  0  0  0  0  0  0
   20.7215   20.3808   25.2826 H   0  0  0  0  0  0  0  0  0  0  0  0
   21.2004   18.7350   23.9535 C   0  0  0  0  0  0  0  0  0  0  0  0
   22.2549   19.0169   23.8328 H   0  0  0  0  0  0  0  0  0  0  0  0
   21.1704   17.6375   23.9731 H   0  0  0  0  0  0  0  0  0  0  0  0
   20.3863   19.2672   22.7500 C   0  0  0  0  0  0  0  0  0  0  0  0
   20.4007   20.3660   22.7560 H   0  0  0  0  0  0  0  0  0  0  0  0
   19.3379   18.9602   22.8520 H   0  0  0  0  0  0  0  0  0  0  0  0
   20.9496   18.7509   21.4040 C   0  0  0  0  0  0  0  0  0  0  0  0
   22.0165   19.0058   21.3395 H   0  0  0  0  0  0  0  0  0  0  0  0
   20.8922   17.6540   21.3743 H   0  0  0  0  0  0  0  0  0  0  0  0
   20.2293   19.3395   20.1666 C   0  0  0  0  0  0  0  0  0  0  0  0
   20.7563   19.0073   19.2612 H   0  0  0  0  0  0  0  0  0  0  0  0
   20.3036   20.4360   20.1797 H   0  0  0  0  0  0  0  0  0  0  0  0
   18.7452   18.9201   20.0607 C   0  0  0  0  0  0  0  0  0  0  0  0
   18.6412   17.8275   20.0773 H   0  0  0  0  0  0  0  0  0  0  0  0
   18.3097   19.2840   19.1211 H   0  0  0  0  0  0  0  0  0  0  0  0
   18.1486   19.3355   20.8821 H   0  0  0  0  0  0  0  0  0  0  0  0
   18.9019   19.4363   27.0148 C   0  0  0  0  0  0  0  0  0  0  0  0
   18.9410   20.5264   26.9599 H   0  0  0  0  0  0  0  0  0  0  0  0
   17.8876   19.1155   27.2628 H   0  0  0  0  0  0  0  0  0  0  0  0
   19.5984   19.0788   27.7764 H   0  0  0  0  0  0  0  0  0  0  0  0
  1  2  1  0  0  0  0
  1  3  1  0  0  0  0
  1  4  1  0  0  0  0
  4  5  1  0  0  0  0
  4  6  1  0  0  0  0
  4  7  1  0  0  0  0
  7  8  1  0  0  0  0
  7  9  1  0  0  0  0
  7 10  1  0  0  0  0
 10 11  1  0  0  0  0
 10 12  1  0  0  0  0
 10 13  1  0  0  0  0
 13 14  1  0  0  0  0
 13 15  1  0  0  0  0
 13 16  1  0  0  0  0
 16 17  1  0  0  0  0
 16 18  1  0  0  0  0
 16 19  1  0  0  0  0
 19 20  1  0  0  0  0
 19 21  1  0  0  0  0
 19 22  1  0  0  0  0
  1 23  1  0  0  0  0
 23 24  1  0  0  0  0
 23 25  1  0  0  0  0
 23 26  1  0  0  0  0
M  END
> <VM2 Rank>
25

> <Conf_Id>
784

> <Probability>
1.18

> <Sum Probability>
58.17

> <Delta G>
1.073

> <G>
76.539

> <E>
44.179

> <-TS>
32.360

> <U+W>
22.718

> <U>
71.970

> <W>
-49.252

> <W(PB)>
-51.559

> <W(SA)>
2.307

> <Valence>
2.341

> <Coulomb>
69.301

> <VdW>
0.327

> <VdW6>
-6.486

> <VdW12>
6.813

> <Bond>
0.179

> <Angle>
0.655

> <Pdih>
1.507

> <Idih>
0.000

> <Tether>
0.000

$$$$
VeraChem MOL file


 26 25  0  0  0  0  0  0  0  0999 V2000     
   20.6687   18.9932   25.7133 N   0  3  0  0  0  0  0  0  0  0  0  0
   21.3065   19.4274   25.0294 H   0  0  0  0  0  0  0  0  0  0  0  0
   20.9328   17.9962   25.7441 H   0  0  0  0  0  0  0  0  0  0  0  0
   19.2317   19.1381   25.2508 C   0  0  0  0  0  0  0  0  0  0  0  0
   18.9924   20.2041   25.2213 H   0  0  0  0  0  0  0  0  0  0  0  0
   18.5946   18.6662   26.0032 H   0  0  0  0  0  0  0  0  0  0  0  0
   18.9502   18.5050   23.8738 C   0  0  0  0  0  0  0  0  0  0  0  0
   19.2000   17.4361   23.9034 H   0  0  0  0  0  0  0  0  0  0  0  0
   17.8716   18.5689   23.6775 H   0  0  0  0  0  0  0  0  0  0  0  0
   19.7222   19.1993   22.7265 C   0  0  0  0  0  0  0  0  0  0  0  0
   20.8012   19.1099   22.9038 H   0  0  0  0  0  0  0  0  0  0  0  0
   19.4856   20.2724   22.7235 H   0  0  0  0  0  0  0  0  0  0  0  0
   19.3705   18.5894   21.3481 C   0  0  0  0  0  0  0  0  0  0  0  0
   19.6505   17.5270   21.3304 H   0  0  0  0  0  0  0  0  0  0  0  0
   18.2813   18.6238   21.2072 H   0  0  0  0  0  0  0  0  0  0  0  0
   20.0418   19.3203   20.1599 C   0  0  0  0  0  0  0  0  0  0  0  0
   19.7467   20.3790   20.1599 H   0  0  0  0  0  0  0  0  0  0  0  0
   19.6575   18.8949   19.2222 H   0  0  0  0  0  0  0  0  0  0  0  0
   21.5837   19.2104   20.1611 C   0  0  0  0  0  0  0  0  0  0  0  0
   21.9050   18.1612   20.1927 H   0  0  0  0  0  0  0  0  0  0  0  0
   22.0251   19.7318   21.0193 H   0  0  0  0  0  0  0  0  0  0  0  0
   22.0014   19.6615   19.2517 H   0  0  0  0  0  0  0  0  0  0  0  0
   20.8393   19.6342   27.0835 C   0  0  0  0  0  0  0  0  0  0  0  0
   20.5845   20.6943   27.0184 H   0  0  0  0  0  0  0  0  0  0  0  0
   20.1779   19.1378   27.7970 H   0  0  0  0  0  0  0  0  0  0  0  0
   21.8776   19.5234   27.4043 H   0  0  0  0  0  0  0  0  0  0  0  0
  1  2  1  0  0  0  0
  1  3  1  0  0  0  0
  1  4  1  0  0  0  0
  4  5  1  0  0  0  0
  4  6  1  0  0  0  0
  4  7  1  0  0  0  0
  7  8  1  0  0  0  0
  7  9  1  0  0  0  0
  7 10  1  0  0  0  0
 10 11  1  0  0  0  0
 10 12  1  0  0  0  0
 10 13  1  0  0  0  0
 13 14  1  0  0  0  0
 13 15  1  0  0  0  0
 13 16  1  0  0  0  0
 16 17  1  0  0  0  0
 16 18  1  0  0  0  0
 16 19  1  0  0  0  0
 19 20  1  0  0  0  0
 19 21  1  0  0  0  0
 19 22  1  0  0  0  0
  1 23  1  0  0  0  0
 23 24  1  0  0  0  0
 23 25  1  0  0  0  0
 23 26  1  0  0  0  0
M  END
> <VM2 Rank>
26

> <Conf_Id>
747

> <Probability>
1.16

> <Sum Probability>
59.33

> <Delta G>
1.080

> <G>
76.546

> <E>
44.186

> <-TS>
32.360

> <U+W>
22.724

> <U>
71.970

> <W>
-49.245

> <W(PB)>
-51.545

> <W(SA)>
2.299

> <Valence>
2.341

> <Coulomb>
69.301

> <VdW>
0.327

> <VdW6>
-6.486

> <VdW12>
6.813

> <Bond>
0.179

> <Angle>
0.655

> <Pdih>
1.507

> <Idih>
0.000

> <Tether>
0.000

$$$$
VeraChem MOL file


 26 25  0  0  0  0  0  0  0  0999 V2000     
   20.3575   19.5881   25.8080 N   0  3  0  0  0  0  0  0  0  0  0  0
   20.5070   20.3498   25.1294 H   0  0  0  0  0  0  0  0  0  0  0  0
   21.2926   19.1907   25.9883 H   0  0  0  0  0  0  0  0  0  0  0  0
   19.4476   18.5310   25.2125 C   0  0  0  0  0  0  0  0  0  0  0  0
   18.4732   18.9900   25.0273 H   0  0  0  0  0  0  0  0  0  0  0  0
   19.3183   17.7470   25.9630 H   0  0  0  0  0  0  0  0  0  0  0  0
   19.9832   17.9068   23.9089 C   0  0  0  0  0  0  0  0  0  0  0  0
   20.9649   17.4518   24.0967 H   0  0  0  0  0  0  0  0  0  0  0  0
   19.3111   17.0900   23.6137 H   0  0  0  0  0  0  0  0  0  0  0  0
   20.0835   18.9301   22.7526 C   0  0  0  0  0  0  0  0  0  0  0  0
   20.7857   19.7305   23.0211 H   0  0  0  0  0  0  0  0  0  0  0  0
   19.1025   19.4007   22.6048 H   0  0  0  0  0  0  0  0  0  0  0  0
   20.5512   18.2631   21.4366 C   0  0  0  0  0  0  0  0  0  0  0  0
   21.4963   17.7331   21.6189 H   0  0  0  0  0  0  0  0  0  0  0  0
   19.8236   17.4995   21.1286 H   0  0  0  0  0  0  0  0  0  0  0  0
   20.7670   19.2674   20.2784 C   0  0  0  0  0  0  0  0  0  0  0  0
   21.1947   18.7295   19.4207 H   0  0  0  0  0  0  0  0  0  0  0  0
   21.5130   20.0191   20.5719 H   0  0  0  0  0  0  0  0  0  0  0  0
   19.4682   19.9730   19.8260 C   0  0  0  0  0  0  0  0  0  0  0  0
   18.6954   19.2421   19.5546 H   0  0  0  0  0  0  0  0  0  0  0  0
   19.6588   20.6014   18.9464 H   0  0  0  0  0  0  0  0  0  0  0  0
   19.0663   20.6224   20.6135 H   0  0  0  0  0  0  0  0  0  0  0  0
   19.7498   20.1306   27.0940 C   0  0  0  0  0  0  0  0  0  0  0  0
   18.7763   20.5735   26.8723 H   0  0  0  0  0  0  0  0  0  0  0  0
   19.6303   19.3125   27.8077 H   0  0  0  0  0  0  0  0  0  0  0  0
   20.4143   20.8903   27.5117 H   0  0  0  0  0  0  0  0  0  0  0  0
  1  2  1  0  0  0  0
  1  3  1  0  0  0  0
  1  4  1  0  0  0  0
  4  5  1  0  0  0  0
  4  6  1  0  0  0  0
  4  7  1  0  0  0  0
  7  8  1  0  0  0  0
  7  9  1  0  0  0  0
  7 10  1  0  0  0  0
 10 11  1  0  0  0  0
 10 12  1  0  0  0  0
 10 13  1  0  0  0  0
 13 14  1  0  0  0  0
 13 15  1  0  0  0  0
 13 16  1  0  0  0  0
 16 17  1  0  0  0  0
 16 18  1  0  0  0  0
 16 19  1  0  0  0  0
 19 20  1  0  0  0  0
 19 21  1  0  0  0  0
 19 22  1  0  0  0  0
  1 23  1  0  0  0  0
 23 24  1  0  0  0  0
 23 25  1  0  0  0  0
 23 26  1  0  0  0  0
M  END
> <VM2 Rank>
27

> <Conf_Id>
977

> <Probability>
1.16

> <Sum Probability>
60.49

> <Delta G>
1.080

> <G>
76.546

> <E>
44.180

> <-TS>
32.366

> <U+W>
22.718

> <U>
71.833

> <W>
-49.115

> <W(PB)>
-51.436

> <W(SA)>
2.321

> <Valence>
2.344

> <Coulomb>
69.159

> <VdW>
0.330

> <VdW6>
-6.475

> <VdW12>
6.805

> <Bond>
0.178

> <Angle>
0.658

> <Pdih>
1.508

> <Idih>
0.000

> <Tether>
0.000

$$$$
VeraChem MOL file


 26 25  0  0  0  0  0  0  0  0999 V2000     
   19.8924   18.9397   26.2621 N   0  3  0  0  0  0  0  0  0  0  0  0
   20.6017   18.2946   26.6435 H   0  0  0  0  0  0  0  0  0  0  0  0
   18.9879   18.4596   26.3896 H   0  0  0  0  0  0  0  0  0  0  0  0
   20.1495   19.1881   24.7895 C   0  0  0  0  0  0  0  0  0  0  0  0
   21.1178   19.6865   24.6973 H   0  0  0  0  0  0  0  0  0  0  0  0
   19.3755   19.8686   24.4266 H   0  0  0  0  0  0  0  0  0  0  0  0
   20.1478   17.8992   23.9451 C   0  0  0  0  0  0  0  0  0  0  0  0
   20.9005   17.2067   24.3448 H   0  0  0  0  0  0  0  0  0  0  0  0
   19.1761   17.3966   24.0404 H   0  0  0  0  0  0  0  0  0  0  0  0
   20.4520   18.1648   22.4519 C   0  0  0  0  0  0  0  0  0  0  0  0
   20.5159   17.2012   21.9279 H   0  0  0  0  0  0  0  0  0  0  0  0
   21.4413   18.6334   22.3651 H   0  0  0  0  0  0  0  0  0  0  0  0
   19.3816   19.0497   21.7638 C   0  0  0  0  0  0  0  0  0  0  0  0
   18.3875   18.6194   21.9480 H   0  0  0  0  0  0  0  0  0  0  0  0
   19.3736   20.0517   22.2133 H   0  0  0  0  0  0  0  0  0  0  0  0
   19.5842   19.1809   20.2348 C   0  0  0  0  0  0  0  0  0  0  0  0
   18.7336   19.7340   19.8123 H   0  0  0  0  0  0  0  0  0  0  0  0
   19.5639   18.1852   19.7700 H   0  0  0  0  0  0  0  0  0  0  0  0
   20.8926   19.9080   19.8493 C   0  0  0  0  0  0  0  0  0  0  0  0
   21.7772   19.3317   20.1476 H   0  0  0  0  0  0  0  0  0  0  0  0
   20.9497   20.8965   20.3233 H   0  0  0  0  0  0  0  0  0  0  0  0
   20.9453   20.0536   18.7626 H   0  0  0  0  0  0  0  0  0  0  0  0
   19.9080   20.2597   27.0204 C   0  0  0  0  0  0  0  0  0  0  0  0
   20.8849   20.7327   26.8980 H   0  0  0  0  0  0  0  0  0  0  0  0
   19.1282   20.9123   26.6218 H   0  0  0  0  0  0  0  0  0  0  0  0
   19.7219   20.0667   28.0793 H   0  0  0  0  0  0  0  0  0  0  0  0
  1  2  1  0  0  0  0
  1  3  1  0  0  0  0
  1  4  1  0  0  0  0
  4  5  1  0  0  0  0
  4  6  1  0  0  0  0
  4  7  1  0  0  0  0
  7  8  1  0  0  0  0
  7  9  1  0  0  0  0
  7 10  1  0  0  0  0
 10 11  1  0  0  0  0
 10 12  1  0  0  0  0
 10 13  1  0  0  0  0
 13 14  1  0  0  0  0
 13 15  1  0  0  0  0
 13 16  1  0  0  0  0
 16 17  1  0  0  0  0
 16 18  1  0  0  0  0
 16 19  1  0  0  0  0
 19 20  1  0  0  0  0
 19 21  1  0  0  0  0
 19 22  1  0  0  0  0
  1 23  1  0  0  0  0
 23 24  1  0  0  0  0
 23 25  1  0  0  0  0
 23 26  1  0  0  0  0
M  END
> <VM2 Rank>
28

> <Conf_Id>
250

> <Probability>
1.14

> <Sum Probability>
61.64

> <Delta G>
1.089

> <G>
76.555

> <E>
44.177

> <-TS>
32.379

> <U+W>
22.715

> <U>
71.734

> <W>
-49.019

> <W(PB)>
-51.333

> <W(SA)>
2.314

> <Valence>
2.508

> <Coulomb>
68.926

> <VdW>
0.300

> <VdW6>
-6.530

> <VdW12>
6.830

> <Bond>
0.185

> <Angle>
0.693

> <Pdih>
1.630

> <Idih>
0.000

> <Tether>
0.000

$$$$
VeraChem MOL file


 26 25  0  0  0  0  0  0  0  0999 V2000     
   19.4710   19.4972   25.7764 N   0  3  0  0  0  0  0  0  0  0  0  0
   18.6256   18.9173   25.8934 H   0  0  0  0  0  0  0  0  0  0  0  0
   19.2183   20.2178   25.0836 H   0  0  0  0  0  0  0  0  0  0  0  0
   20.6158   18.6509   25.2539 C   0  0  0  0  0  0  0  0  0  0  0  0
   20.8485   17.9041   26.0173 H   0  0  0  0  0  0  0  0  0  0  0  0
   21.4874   19.2993   25.1341 H   0  0  0  0  0  0  0  0  0  0  0  0
   20.3107   17.9403   23.9205 C   0  0  0  0  0  0  0  0  0  0  0  0
   21.1536   17.2791   23.6790 H   0  0  0  0  0  0  0  0  0  0  0  0
   19.4312   17.2942   24.0424 H   0  0  0  0  0  0  0  0  0  0  0  0
   20.0860   18.9303   22.7527 C   0  0  0  0  0  0  0  0  0  0  0  0
   20.9589   19.5914   22.6706 H   0  0  0  0  0  0  0  0  0  0  0  0
   19.2188   19.5694   22.9655 H   0  0  0  0  0  0  0  0  0  0  0  0
   19.8570   18.1917   21.4120 C   0  0  0  0  0  0  0  0  0  0  0  0
   20.7443   17.5942   21.1611 H   0  0  0  0  0  0  0  0  0  0  0  0
   19.0289   17.4793   21.5314 H   0  0  0  0  0  0  0  0  0  0  0  0
   19.5233   19.1395   20.2343 C   0  0  0  0  0  0  0  0  0  0  0  0
   18.6213   19.7217   20.4695 H   0  0  0  0  0  0  0  0  0  0  0  0
   19.2750   18.5322   19.3526 H   0  0  0  0  0  0  0  0  0  0  0  0
   20.6799   20.0977   19.8691 C   0  0  0  0  0  0  0  0  0  0  0  0
   21.6023   19.5412   19.6579 H   0  0  0  0  0  0  0  0  0  0  0  0
   20.8851   20.8096   20.6782 H   0  0  0  0  0  0  0  0  0  0  0  0
   20.4276   20.6806   18.9738 H   0  0  0  0  0  0  0  0  0  0  0  0
   19.8643   20.1424   27.0980 C   0  0  0  0  0  0  0  0  0  0  0  0
   19.0320   20.7486   27.4625 H   0  0  0  0  0  0  0  0  0  0  0  0
   20.0966   19.3603   27.8242 H   0  0  0  0  0  0  0  0  0  0  0  0
   20.7409   20.7749   26.9421 H   0  0  0  0  0  0  0  0  0  0  0  0
  1  2  1  0  0  0  0
  1  3  1  0  0  0  0
  1  4  1  0  0  0  0
  4  5  1  0  0  0  0
  4  6  1  0  0  0  0
  4  7  1  0  0  0  0
  7  8  1  0  0  0  0
  7  9  1  0  0  0  0
  7 10  1  0  0  0  0
 10 11  1  0  0  0  0
 10 12  1  0  0  0  0
 10 13  1  0  0  0  0
 13 14  1  0  0  0  0
 13 15  1  0  0  0  0
 13 16  1  0  0  0  0
 16 17  1  0  0  0  0
 16 18  1  0  0  0  0
 16 19  1  0  0  0  0
 19 20  1  0  0  0  0
 19 21  1  0  0  0  0
 19 22  1  0  0  0  0
  1 23  1  0  0  0  0
 23 24  1  0  0  0  0
 23 25  1  0  0  0  0
 23 26  1  0  0  0  0
M  END
> <VM2 Rank>
29

> <Conf_Id>
1069

> <Probability>
1.11

> <Sum Probability>
62.74

> <Delta G>
1.109

> <G>
76.575

> <E>
44.209

> <-TS>
32.367

> <U+W>
22.747

> <U>
71.833

> <W>
-49.086

> <W(PB)>
-51.406

> <W(SA)>
2.321

> <Valence>
2.344

> <Coulomb>
69.159

> <VdW>
0.330

> <VdW6>
-6.475

> <VdW12>
6.805

> <Bond>
0.178

> <Angle>
0.658

> <Pdih>
1.508

> <Idih>
0.000

> <Tether>
0.000

$$$$
VeraChem MOL file


 26 25  0  0  0  0  0  0  0  0999 V2000     
   20.4256   19.6107   25.8093 N   0  3  0  0  0  0  0  0  0  0  0  0
   20.0771   20.4659   25.3507 H   0  0  0  0  0  0  0  0  0  0  0  0
   21.4369   19.5808   25.6070 H   0  0  0  0  0  0  0  0  0  0  0  0
   19.7402   18.3905   25.2251 C   0  0  0  0  0  0  0  0  0  0  0  0
   18.6734   18.4625   25.4511 H   0  0  0  0  0  0  0  0  0  0  0  0
   20.1390   17.5112   25.7374 H   0  0  0  0  0  0  0  0  0  0  0  0
   19.9388   18.2306   23.7050 C   0  0  0  0  0  0  0  0  0  0  0  0
   21.0122   18.1576   23.4893 H   0  0  0  0  0  0  0  0  0  0  0  0
   19.4896   17.2778   23.3949 H   0  0  0  0  0  0  0  0  0  0  0  0
   19.2993   19.3872   22.8965 C   0  0  0  0  0  0  0  0  0  0  0  0
   19.8016   20.3352   23.1312 H   0  0  0  0  0  0  0  0  0  0  0  0
   18.2527   19.5054   23.2100 H   0  0  0  0  0  0  0  0  0  0  0  0
   19.3296   19.1595   21.3650 C   0  0  0  0  0  0  0  0  0  0  0  0
   18.8072   18.2241   21.1209 H   0  0  0  0  0  0  0  0  0  0  0  0
   18.7596   19.9650   20.8817 H   0  0  0  0  0  0  0  0  0  0  0  0
   20.7584   19.1291   20.7721 C   0  0  0  0  0  0  0  0  0  0  0  0
   21.3232   18.2831   21.1859 H   0  0  0  0  0  0  0  0  0  0  0  0
   21.2984   20.0428   21.0573 H   0  0  0  0  0  0  0  0  0  0  0  0
   20.7339   19.0093   19.2332 C   0  0  0  0  0  0  0  0  0  0  0  0
   20.2116   19.8612   18.7786 H   0  0  0  0  0  0  0  0  0  0  0  0
   20.2260   18.0888   18.9171 H   0  0  0  0  0  0  0  0  0  0  0  0
   21.7545   18.9863   18.8298 H   0  0  0  0  0  0  0  0  0  0  0  0
   20.1821   19.6731   27.3107 C   0  0  0  0  0  0  0  0  0  0  0  0
   19.1079   19.7361   27.4980 H   0  0  0  0  0  0  0  0  0  0  0  0
   20.5870   18.7727   27.7779 H   0  0  0  0  0  0  0  0  0  0  0  0
   20.6800   20.5558   27.7181 H   0  0  0  0  0  0  0  0  0  0  0  0
  1  2  1  0  0  0  0
  1  3  1  0  0  0  0
  1  4  1  0  0  0  0
  4  5  1  0  0  0  0
  4  6  1  0  0  0  0
  4  7  1  0  0  0  0
  7  8  1  0  0  0  0
  7  9  1  0  0  0  0
  7 10  1  0  0  0  0
 10 11  1  0  0  0  0
 10 12  1  0  0  0  0
 10 13  1  0  0  0  0
 13 14  1  0  0  0  0
 13 15  1  0  0  0  0
 13 16  1  0  0  0  0
 16 17  1  0  0  0  0
 16 18  1  0  0  0  0
 16 19  1  0  0  0  0
 19 20  1  0  0  0  0
 19 21  1  0  0  0  0
 19 22  1  0  0  0  0
  1 23  1  0  0  0  0
 23 24  1  0  0  0  0
 23 25  1  0  0  0  0
 23 26  1  0  0  0  0
M  END
> <VM2 Rank>
30

> <Conf_Id>
709

> <Probability>
1.09

> <Sum Probability>
63.83

> <Delta G>
1.119

> <G>
76.585

> <E>
44.219

> <-TS>
32.365

> <U+W>
22.758

> <U>
71.994

> <W>
-49.236

> <W(PB)>
-51.536

> <W(SA)>
2.300

> <Valence>
2.376

> <Coulomb>
69.315

> <VdW>
0.303

> <VdW6>
-6.507

> <VdW12>
6.810

> <Bond>
0.182

> <Angle>
0.660

> <Pdih>
1.534

> <Idih>
0.000

> <Tether>
0.000

$$$$
VeraChem MOL file


 26 25  0  0  0  0  0  0  0  0999 V2000     
   20.0251   18.9534   26.2667 N   0  3  0  0  0  0  0  0  0  0  0  0
   20.9970   18.6660   26.4607 H   0  0  0  0  0  0  0  0  0  0  0  0
   19.4366   18.1750   26.6023 H   0  0  0  0  0  0  0  0  0  0  0  0
   19.8265   19.1549   24.7780 C   0  0  0  0  0  0  0  0  0  0  0  0
   20.4696   19.9810   24.4653 H   0  0  0  0  0  0  0  0  0  0  0  0
   18.7861   19.4469   24.6148 H   0  0  0  0  0  0  0  0  0  0  0  0
   20.1490   17.8993   23.9452 C   0  0  0  0  0  0  0  0  0  0  0  0
   21.1934   17.6037   24.1119 H   0  0  0  0  0  0  0  0  0  0  0  0
   19.5264   17.0655   24.2962 H   0  0  0  0  0  0  0  0  0  0  0  0
   19.9025   18.1083   22.4324 C   0  0  0  0  0  0  0  0  0  0  0  0
   18.8472   18.3671   22.2732 H   0  0  0  0  0  0  0  0  0  0  0  0
   20.0720   17.1555   21.9123 H   0  0  0  0  0  0  0  0  0  0  0  0
   20.8167   19.1967   21.8146 C   0  0  0  0  0  0  0  0  0  0  0  0
   20.5900   20.1763   22.2564 H   0  0  0  0  0  0  0  0  0  0  0  0
   21.8620   18.9754   22.0708 H   0  0  0  0  0  0  0  0  0  0  0  0
   20.6990   19.2951   20.2743 C   0  0  0  0  0  0  0  0  0  0  0  0
   20.9527   18.3275   19.8191 H   0  0  0  0  0  0  0  0  0  0  0  0
   21.4473   20.0119   19.9082 H   0  0  0  0  0  0  0  0  0  0  0  0
   19.3006   19.7451   19.7932 C   0  0  0  0  0  0  0  0  0  0  0  0
   19.0117   20.6982   20.2548 H   0  0  0  0  0  0  0  0  0  0  0  0
   18.5323   18.9997   20.0332 H   0  0  0  0  0  0  0  0  0  0  0  0
   19.2954   19.8847   18.7044 H   0  0  0  0  0  0  0  0  0  0  0  0
   19.6887   20.2373   27.0126 C   0  0  0  0  0  0  0  0  0  0  0  0
   19.8357   20.0785   28.0833 H   0  0  0  0  0  0  0  0  0  0  0  0
   20.3458   21.0374   26.6647 H   0  0  0  0  0  0  0  0  0  0  0  0
   18.6472   20.5029   26.8187 H   0  0  0  0  0  0  0  0  0  0  0  0
  1  2  1  0  0  0  0
  1  3  1  0  0  0  0
  1  4  1  0  0  0  0
  4  5  1  0  0  0  0
  4  6  1  0  0  0  0
  4  7  1  0  0  0  0
  7  8  1  0  0  0  0
  7  9  1  0  0  0  0
  7 10  1  0  0  0  0
 10 11  1  0  0  0  0
 10 12  1  0  0  0  0
 10 13  1  0  0  0  0
 13 14  1  0  0  0  0
 13 15  1  0  0  0  0
 13 16  1  0  0  0  0
 16 17  1  0  0  0  0
 16 18  1  0  0  0  0
 16 19  1  0  0  0  0
 19 20  1  0  0  0  0
 19 21  1  0  0  0  0
 19 22  1  0  0  0  0
  1 23  1  0  0  0  0
 23 24  1  0  0  0  0
 23 25  1  0  0  0  0
 23 26  1  0  0  0  0
M  END
> <VM2 Rank>
31

> <Conf_Id>
808

> <Probability>
1.08

> <Sum Probability>
64.92

> <Delta G>
1.121

> <G>
76.587

> <E>
44.209

> <-TS>
32.379

> <U+W>
22.747

> <U>
71.734

> <W>
-48.987

> <W(PB)>
-51.298

> <W(SA)>
2.311

> <Valence>
2.508

> <Coulomb>
68.926

> <VdW>
0.300

> <VdW6>
-6.530

> <VdW12>
6.830

> <Bond>
0.185

> <Angle>
0.693

> <Pdih>
1.631

> <Idih>
0.000

> <Tether>
0.000

$$$$
VeraChem MOL file


 26 25  0  0  0  0  0  0  0  0999 V2000     
   19.7872   19.6957   25.5551 N   0  3  0  0  0  0  0  0  0  0  0  0
   18.8773   19.6121   26.0342 H   0  0  0  0  0  0  0  0  0  0  0  0
   19.6268   20.3399   24.7662 H   0  0  0  0  0  0  0  0  0  0  0  0
   20.2296   18.3416   25.0359 C   0  0  0  0  0  0  0  0  0  0  0  0
   20.3761   17.6877   25.8994 H   0  0  0  0  0  0  0  0  0  0  0  0
   21.1947   18.4699   24.5402 H   0  0  0  0  0  0  0  0  0  0  0  0
   19.2263   17.6881   24.0630 C   0  0  0  0  0  0  0  0  0  0  0  0
   19.6046   16.6961   23.7823 H   0  0  0  0  0  0  0  0  0  0  0  0
   18.2770   17.5158   24.5873 H   0  0  0  0  0  0  0  0  0  0  0  0
   18.9607   18.5150   22.7796 C   0  0  0  0  0  0  0  0  0  0  0  0
   18.4897   19.4718   23.0417 H   0  0  0  0  0  0  0  0  0  0  0  0
   18.2293   17.9753   22.1622 H   0  0  0  0  0  0  0  0  0  0  0  0
   20.2382   18.7717   21.9442 C   0  0  0  0  0  0  0  0  0  0  0  0
   20.9621   19.3521   22.5316 H   0  0  0  0  0  0  0  0  0  0  0  0
   20.7187   17.8130   21.7047 H   0  0  0  0  0  0  0  0  0  0  0  0
   19.9253   19.5308   20.6354 C   0  0  0  0  0  0  0  0  0  0  0  0
   19.4424   20.4901   20.8688 H   0  0  0  0  0  0  0  0  0  0  0  0
   19.2090   18.9540   20.0335 H   0  0  0  0  0  0  0  0  0  0  0  0
   21.2005   19.7885   19.8046 C   0  0  0  0  0  0  0  0  0  0  0  0
   21.6881   18.8450   19.5266 H   0  0  0  0  0  0  0  0  0  0  0  0
   21.9230   20.3938   20.3674 H   0  0  0  0  0  0  0  0  0  0  0  0
   20.9581   20.3275   18.8795 H   0  0  0  0  0  0  0  0  0  0  0  0
   20.8402   20.2586   26.4992 C   0  0  0  0  0  0  0  0  0  0  0  0
   20.9705   19.5744   27.3405 H   0  0  0  0  0  0  0  0  0  0  0  0
   21.7843   20.3671   25.9608 H   0  0  0  0  0  0  0  0  0  0  0  0
   20.5095   21.2335   26.8644 H   0  0  0  0  0  0  0  0  0  0  0  0
  1  2  1  0  0  0  0
  1  3  1  0  0  0  0
  1  4  1  0  0  0  0
  4  5  1  0  0  0  0
  4  6  1  0  0  0  0
  4  7  1  0  0  0  0
  7  8  1  0  0  0  0
  7  9  1  0  0  0  0
  7 10  1  0  0  0  0
 10 11  1  0  0  0  0
 10 12  1  0  0  0  0
 10 13  1  0  0  0  0
 13 14  1  0  0  0  0
 13 15  1  0  0  0  0
 13 16  1  0  0  0  0
 16 17  1  0  0  0  0
 16 18  1  0  0  0  0
 16 19  1  0  0  0  0
 19 20  1  0  0  0  0
 19 21  1  0  0  0  0
 19 22  1  0  0  0  0
  1 23  1  0  0  0  0
 23 24  1  0  0  0  0
 23 25  1  0  0  0  0
 23 26  1  0  0  0  0
M  END
> <VM2 Rank>
32

> <Conf_Id>
717

> <Probability>
1.04

> <Sum Probability>
65.95

> <Delta G>
1.148

> <G>
76.614

> <E>
44.171

> <-TS>
32.443

> <U+W>
22.710

> <U>
71.905

> <W>
-49.195

> <W(PB)>
-51.490

> <W(SA)>
2.294

> <Valence>
2.125

> <Coulomb>
69.686

> <VdW>
0.093

> <VdW6>
-6.766

> <VdW12>
6.859

> <Bond>
0.169

> <Angle>
0.621

> <Pdih>
1.336

> <Idih>
0.000

> <Tether>
0.000

$$$$
VeraChem MOL file


 26 25  0  0  0  0  0  0  0  0999 V2000     
   20.4244   18.8026   25.9412 N   0  3  0  0  0  0  0  0  0  0  0  0
   21.1900   18.1424   25.7350 H   0  0  0  0  0  0  0  0  0  0  0  0
   19.7484   18.2701   26.5106 H   0  0  0  0  0  0  0  0  0  0  0  0
   19.7727   19.2669   24.6544 C   0  0  0  0  0  0  0  0  0  0  0  0
   20.5214   19.8209   24.0829 H   0  0  0  0  0  0  0  0  0  0  0  0
   18.9623   19.9517   24.9163 H   0  0  0  0  0  0  0  0  0  0  0  0
   19.2185   18.1107   23.8002 C   0  0  0  0  0  0  0  0  0  0  0  0
   20.0292   17.4157   23.5472 H   0  0  0  0  0  0  0  0  0  0  0  0
   18.4973   17.5369   24.3972 H   0  0  0  0  0  0  0  0  0  0  0  0
   18.5182   18.6023   22.5087 C   0  0  0  0  0  0  0  0  0  0  0  0
   17.6269   19.1819   22.7865 H   0  0  0  0  0  0  0  0  0  0  0  0
   18.1491   17.7314   21.9496 H   0  0  0  0  0  0  0  0  0  0  0  0
   19.4027   19.4685   21.5746 C   0  0  0  0  0  0  0  0  0  0  0  0
   18.7964   19.7751   20.7110 H   0  0  0  0  0  0  0  0  0  0  0  0
   19.6915   20.3973   22.0847 H   0  0  0  0  0  0  0  0  0  0  0  0
   20.6680   18.7379   21.0658 C   0  0  0  0  0  0  0  0  0  0  0  0
   20.3828   17.7882   20.5920 H   0  0  0  0  0  0  0  0  0  0  0  0
   21.3264   18.4886   21.9085 H   0  0  0  0  0  0  0  0  0  0  0  0
   21.4547   19.5987   20.0543 C   0  0  0  0  0  0  0  0  0  0  0  0
   20.8411   19.8357   19.1754 H   0  0  0  0  0  0  0  0  0  0  0  0
   22.3496   19.0669   19.7062 H   0  0  0  0  0  0  0  0  0  0  0  0
   21.7800   20.5435   20.5090 H   0  0  0  0  0  0  0  0  0  0  0  0
   20.9488   20.0024   26.7179 C   0  0  0  0  0  0  0  0  0  0  0  0
   20.1166   20.6695   26.9532 H   0  0  0  0  0  0  0  0  0  0  0  0
   21.4154   19.6545   27.6422 H   0  0  0  0  0  0  0  0  0  0  0  0
   21.6858   20.5304   26.1087 H   0  0  0  0  0  0  0  0  0  0  0  0
  1  2  1  0  0  0  0
  1  3  1  0  0  0  0
  1  4  1  0  0  0  0
  4  5  1  0  0  0  0
  4  6  1  0  0  0  0
  4  7  1  0  0  0  0
  7  8  1  0  0  0  0
  7  9  1  0  0  0  0
  7 10  1  0  0  0  0
 10 11  1  0  0  0  0
 10 12  1  0  0  0  0
 10 13  1  0  0  0  0
 13 14  1  0  0  0  0
 13 15  1  0  0  0  0
 13 16  1  0  0  0  0
 16 17  1  0  0  0  0
 16 18  1  0  0  0  0
 16 19  1  0  0  0  0
 19 20  1  0  0  0  0
 19 21  1  0  0  0  0
 19 22  1  0  0  0  0
  1 23  1  0  0  0  0
 23 24  1  0  0  0  0
 23 25  1  0  0  0  0
 23 26  1  0  0  0  0
M  END
> <VM2 Rank>
33

> <Conf_Id>
165

> <Probability>
1.03

> <Sum Probability>
66.98

> <Delta G>
1.154

> <G>
76.620

> <E>
44.123

> <-TS>
32.497

> <U+W>
22.661

> <U>
72.035

> <W>
-49.374

> <W(PB)>
-51.684

> <W(SA)>
2.310

> <Valence>
2.479

> <Coulomb>
69.414

> <VdW>
0.143

> <VdW6>
-6.883

> <VdW12>
7.025

> <Bond>
0.193

> <Angle>
0.854

> <Pdih>
1.432

> <Idih>
0.000

> <Tether>
0.000

$$$$
VeraChem MOL file


 26 25  0  0  0  0  0  0  0  0999 V2000     
   20.0237   19.7199   25.5637 N   0  3  0  0  0  0  0  0  0  0  0  0
   20.1050   20.3891   24.7836 H   0  0  0  0  0  0  0  0  0  0  0  0
   20.8957   19.8192   26.1063 H   0  0  0  0  0  0  0  0  0  0  0  0
   19.9032   18.3080   25.0243 C   0  0  0  0  0  0  0  0  0  0  0  0
   18.9693   18.2413   24.4613 H   0  0  0  0  0  0  0  0  0  0  0  0
   19.8325   17.6316   25.8799 H   0  0  0  0  0  0  0  0  0  0  0  0
   21.0839   17.8792   24.1287 C   0  0  0  0  0  0  0  0  0  0  0  0
   22.0094   17.8997   24.7194 H   0  0  0  0  0  0  0  0  0  0  0  0
   20.9358   16.8332   23.8293 H   0  0  0  0  0  0  0  0  0  0  0  0
   21.2650   18.7522   22.8612 C   0  0  0  0  0  0  0  0  0  0  0  0
   22.1324   18.3770   22.3004 H   0  0  0  0  0  0  0  0  0  0  0  0
   21.5121   19.7829   23.1487 H   0  0  0  0  0  0  0  0  0  0  0  0
   20.0238   18.7497   21.9365 C   0  0  0  0  0  0  0  0  0  0  0  0
   19.7662   17.7151   21.6709 H   0  0  0  0  0  0  0  0  0  0  0  0
   19.1576   19.1665   22.4676 H   0  0  0  0  0  0  0  0  0  0  0  0
   20.2667   19.5659   20.6474 C   0  0  0  0  0  0  0  0  0  0  0  0
   21.1256   19.1511   20.1014 H   0  0  0  0  0  0  0  0  0  0  0  0
   20.5267   20.6017   20.9070 H   0  0  0  0  0  0  0  0  0  0  0  0
   19.0271   19.5648   19.7275 C   0  0  0  0  0  0  0  0  0  0  0  0
   18.7622   18.5439   19.4229 H   0  0  0  0  0  0  0  0  0  0  0  0
   19.2189   20.1484   18.8177 H   0  0  0  0  0  0  0  0  0  0  0  0
   18.1589   20.0065   20.2339 H   0  0  0  0  0  0  0  0  0  0  0  0
   18.8146   20.0502   26.4275 C   0  0  0  0  0  0  0  0  0  0  0  0
   18.9140   21.0692   26.8083 H   0  0  0  0  0  0  0  0  0  0  0  0
   17.9085   19.9688   25.8233 H   0  0  0  0  0  0  0  0  0  0  0  0
   18.7672   19.3476   27.2624 H   0  0  0  0  0  0  0  0  0  0  0  0
  1  2  1  0  0  0  0
  1  3  1  0  0  0  0
  1  4  1  0  0  0  0
  4  5  1  0  0  0  0
  4  6  1  0  0  0  0
  4  7  1  0  0  0  0
  7  8  1  0  0  0  0
  7  9  1  0  0  0  0
  7 10  1  0  0  0  0
 10 11  1  0  0  0  0
 10 12  1  0  0  0  0
 10 13  1  0  0  0  0
 13 14  1  0  0  0  0
 13 15  1  0  0  0  0
 13 16  1  0  0  0  0
 16 17  1  0  0  0  0
 16 18  1  0  0  0  0
 16 19  1  0  0  0  0
 19 20  1  0  0  0  0
 19 21  1  0  0  0  0
 19 22  1  0  0  0  0
  1 23  1  0  0  0  0
 23 24  1  0  0  0  0
 23 25  1  0  0  0  0
 23 26  1  0  0  0  0
M  END
> <VM2 Rank>
34

> <Conf_Id>
478

> <Probability>
1.01

> <Sum Probability>
67.99

> <Delta G>
1.162

> <G>
76.628

> <E>
44.185

> <-TS>
32.443

> <U+W>
22.723

> <U>
71.904

> <W>
-49.182

> <W(PB)>
-51.495

> <W(SA)>
2.313

> <Valence>
2.125

> <Coulomb>
69.686

> <VdW>
0.093

> <VdW6>
-6.766

> <VdW12>
6.859

> <Bond>
0.169

> <Angle>
0.621

> <Pdih>
1.336

> <Idih>
0.000

> <Tether>
0.000

$$$$
VeraChem MOL file


 26 25  0  0  0  0  0  0  0  0999 V2000     
   19.3998   19.5054   25.7730 N   0  3  0  0  0  0  0  0  0  0  0  0
   18.4323   19.2724   25.5007 H   0  0  0  0  0  0  0  0  0  0  0  0
   19.5989   20.4168   25.3338 H   0  0  0  0  0  0  0  0  0  0  0  0
   20.3576   18.4538   25.2470 C   0  0  0  0  0  0  0  0  0  0  0  0
   20.1106   17.5083   25.7364 H   0  0  0  0  0  0  0  0  0  0  0  0
   21.3692   18.7390   25.5465 H   0  0  0  0  0  0  0  0  0  0  0  0
   20.3024   18.2679   23.7179 C   0  0  0  0  0  0  0  0  0  0  0  0
   20.9561   17.4283   23.4468 H   0  0  0  0  0  0  0  0  0  0  0  0
   19.2839   17.9803   23.4281 H   0  0  0  0  0  0  0  0  0  0  0  0
   20.7490   19.5360   22.9478 C   0  0  0  0  0  0  0  0  0  0  0  0
   21.7253   19.8619   23.3331 H   0  0  0  0  0  0  0  0  0  0  0  0
   20.0496   20.3607   23.1400 H   0  0  0  0  0  0  0  0  0  0  0  0
   20.8729   19.3179   21.4197 C   0  0  0  0  0  0  0  0  0  0  0  0
   21.3000   20.2258   20.9717 H   0  0  0  0  0  0  0  0  0  0  0  0
   21.5900   18.5098   21.2195 H   0  0  0  0  0  0  0  0  0  0  0  0
   19.5251   19.0024   20.7284 C   0  0  0  0  0  0  0  0  0  0  0  0
   18.7922   19.7854   20.9685 H   0  0  0  0  0  0  0  0  0  0  0  0
   19.1163   18.0565   21.1077 H   0  0  0  0  0  0  0  0  0  0  0  0
   19.6811   18.9013   19.1959 C   0  0  0  0  0  0  0  0  0  0  0  0
   18.7172   18.6745   18.7222 H   0  0  0  0  0  0  0  0  0  0  0  0
   20.3862   18.1054   18.9227 H   0  0  0  0  0  0  0  0  0  0  0  0
   20.0501   19.8448   18.7729 H   0  0  0  0  0  0  0  0  0  0  0  0
   19.5201   19.6052   27.2873 C   0  0  0  0  0  0  0  0  0  0  0  0
   18.8262   20.3656   27.6526 H   0  0  0  0  0  0  0  0  0  0  0  0
   19.2746   18.6380   27.7314 H   0  0  0  0  0  0  0  0  0  0  0  0
   20.5434   19.8835   27.5487 H   0  0  0  0  0  0  0  0  0  0  0  0
  1  2  1  0  0  0  0
  1  3  1  0  0  0  0
  1  4  1  0  0  0  0
  4  5  1  0  0  0  0
  4  6  1  0  0  0  0
  4  7  1  0  0  0  0
  7  8  1  0  0  0  0
  7  9  1  0  0  0  0
  7 10  1  0  0  0  0
 10 11  1  0  0  0  0
 10 12  1  0  0  0  0
 10 13  1  0  0  0  0
 13 14  1  0  0  0  0
 13 15  1  0  0  0  0
 13 16  1  0  0  0  0
 16 17  1  0  0  0  0
 16 18  1  0  0  0  0
 16 19  1  0  0  0  0
 19 20  1  0  0  0  0
 19 21  1  0  0  0  0
 19 22  1  0  0  0  0
  1 23  1  0  0  0  0
 23 24  1  0  0  0  0
 23 25  1  0  0  0  0
 23 26  1  0  0  0  0
M  END
> <VM2 Rank>
35

> <Conf_Id>
1036

> <Probability>
0.97

> <Sum Probability>
68.96

> <Delta G>
1.190

> <G>
76.656

> <E>
44.291

> <-TS>
32.365

> <U+W>
22.830

> <U>
71.994

> <W>
-49.164

> <W(PB)>
-51.485

> <W(SA)>
2.320

> <Valence>
2.376

> <Coulomb>
69.315

> <VdW>
0.303

> <VdW6>
-6.508

> <VdW12>
6.810

> <Bond>
0.182

> <Angle>
0.660

> <Pdih>
1.534

> <Idih>
0.000

> <Tether>
0.000

$$$$
VeraChem MOL file


 26 25  0  0  0  0  0  0  0  0999 V2000     
   19.7308   18.7294   26.0268 N   0  3  0  0  0  0  0  0  0  0  0  0
   20.1162   17.7727   26.0564 H   0  0  0  0  0  0  0  0  0  0  0  0
   18.7854   18.6340   25.6264 H   0  0  0  0  0  0  0  0  0  0  0  0
   20.5876   19.6097   25.1374 C   0  0  0  0  0  0  0  0  0  0  0  0
   21.5749   19.6824   25.6007 H   0  0  0  0  0  0  0  0  0  0  0  0
   20.1438   20.6083   25.1220 H   0  0  0  0  0  0  0  0  0  0  0  0
   20.7388   19.0869   23.6950 C   0  0  0  0  0  0  0  0  0  0  0  0
   21.4674   19.7250   23.1800 H   0  0  0  0  0  0  0  0  0  0  0  0
   21.1654   18.0752   23.7149 H   0  0  0  0  0  0  0  0  0  0  0  0
   19.3990   19.0848   22.9163 C   0  0  0  0  0  0  0  0  0  0  0  0
   18.9917   20.1048   22.8778 H   0  0  0  0  0  0  0  0  0  0  0  0
   18.6618   18.4791   23.4596 H   0  0  0  0  0  0  0  0  0  0  0  0
   19.5193   18.5205   21.4790 C   0  0  0  0  0  0  0  0  0  0  0  0
   19.9202   17.4981   21.5167 H   0  0  0  0  0  0  0  0  0  0  0  0
   18.5099   18.4391   21.0524 H   0  0  0  0  0  0  0  0  0  0  0  0
   20.3910   19.3888   20.5406 C   0  0  0  0  0  0  0  0  0  0  0  0
   21.4272   19.4174   20.9024 H   0  0  0  0  0  0  0  0  0  0  0  0
   20.0231   20.4244   20.5446 H   0  0  0  0  0  0  0  0  0  0  0  0
   20.3819   18.8490   19.0943 C   0  0  0  0  0  0  0  0  0  0  0  0
   20.7727   17.8239   19.0532 H   0  0  0  0  0  0  0  0  0  0  0  0
   21.0069   19.4740   18.4433 H   0  0  0  0  0  0  0  0  0  0  0  0
   19.3651   18.8441   18.6804 H   0  0  0  0  0  0  0  0  0  0  0  0
   19.6596   19.3210   27.4276 C   0  0  0  0  0  0  0  0  0  0  0  0
   20.6679   19.3825   27.8430 H   0  0  0  0  0  0  0  0  0  0  0  0
   19.2198   20.3193   27.3740 H   0  0  0  0  0  0  0  0  0  0  0  0
   19.0400   18.6782   28.0570 H   0  0  0  0  0  0  0  0  0  0  0  0
  1  2  1  0  0  0  0
  1  3  1  0  0  0  0
  1  4  1  0  0  0  0
  4  5  1  0  0  0  0
  4  6  1  0  0  0  0
  4  7  1  0  0  0  0
  7  8  1  0  0  0  0
  7  9  1  0  0  0  0
  7 10  1  0  0  0  0
 10 11  1  0  0  0  0
 10 12  1  0  0  0  0
 10 13  1  0  0  0  0
 13 14  1  0  0  0  0
 13 15  1  0  0  0  0
 13 16  1  0  0  0  0
 16 17  1  0  0  0  0
 16 18  1  0  0  0  0
 16 19  1  0  0  0  0
 19 20  1  0  0  0  0
 19 21  1  0  0  0  0
 19 22  1  0  0  0  0
  1 23  1  0  0  0  0
 23 24  1  0  0  0  0
 23 25  1  0  0  0  0
 23 26  1  0  0  0  0
M  END
> <VM2 Rank>
36

> <Conf_Id>
554

> <Probability>
0.95

> <Sum Probability>
69.91

> <Delta G>
1.198

> <G>
76.664

> <E>
44.334

> <-TS>
32.330

> <U+W>
22.872

> <U>
71.903

> <W>
-49.031

> <W(PB)>
-51.327

> <W(SA)>
2.296

> <Valence>
2.409

> <Coulomb>
69.133

> <VdW>
0.360

> <VdW6>
-6.461

> <VdW12>
6.822

> <Bond>
0.187

> <Angle>
0.708

> <Pdih>
1.514

> <Idih>
0.000

> <Tether>
0.000

$$$$
VeraChem MOL file


 26 25  0  0  0  0  0  0  0  0999 V2000     
   19.5559   18.7133   25.9105 N   0  3  0  0  0  0  0  0  0  0  0  0
   20.2844   18.3252   26.5296 H   0  0  0  0  0  0  0  0  0  0  0  0
   18.9568   17.9126   25.6559 H   0  0  0  0  0  0  0  0  0  0  0  0
   20.1880   19.3097   24.6691 C   0  0  0  0  0  0  0  0  0  0  0  0
   20.8220   20.1430   24.9823 H   0  0  0  0  0  0  0  0  0  0  0  0
   19.3842   19.7040   24.0427 H   0  0  0  0  0  0  0  0  0  0  0  0
   21.0241   18.2965   23.8641 C   0  0  0  0  0  0  0  0  0  0  0  0
   21.8033   17.8769   24.5142 H   0  0  0  0  0  0  0  0  0  0  0  0
   20.3913   17.4530   23.5600 H   0  0  0  0  0  0  0  0  0  0  0  0
   21.6984   18.9295   22.6213 C   0  0  0  0  0  0  0  0  0  0  0  0
   22.2751   18.1559   22.0957 H   0  0  0  0  0  0  0  0  0  0  0  0
   22.4316   19.6762   22.9566 H   0  0  0  0  0  0  0  0  0  0  0  0
   20.7238   19.6044   21.6213 C   0  0  0  0  0  0  0  0  0  0  0  0
   20.2172   20.4513   22.1034 H   0  0  0  0  0  0  0  0  0  0  0  0
   21.3141   20.0342   20.8002 H   0  0  0  0  0  0  0  0  0  0  0  0
   19.6724   18.6355   21.0304 C   0  0  0  0  0  0  0  0  0  0  0  0
   19.0211   18.2514   21.8268 H   0  0  0  0  0  0  0  0  0  0  0  0
   20.1772   17.7670   20.5846 H   0  0  0  0  0  0  0  0  0  0  0  0
   18.7999   19.3255   19.9602 C   0  0  0  0  0  0  0  0  0  0  0  0
   18.2583   20.1811   20.3842 H   0  0  0  0  0  0  0  0  0  0  0  0
   18.0584   18.6254   19.5541 H   0  0  0  0  0  0  0  0  0  0  0  0
   19.4125   19.6887   19.1247 H   0  0  0  0  0  0  0  0  0  0  0  0
   18.7454   19.7757   26.6399 C   0  0  0  0  0  0  0  0  0  0  0  0
   17.9610   20.1472   25.9770 H   0  0  0  0  0  0  0  0  0  0  0  0
   18.2958   19.3336   27.5319 H   0  0  0  0  0  0  0  0  0  0  0  0
   19.4060   20.5964   26.9281 H   0  0  0  0  0  0  0  0  0  0  0  0
  1  2  1  0  0  0  0
  1  3  1  0  0  0  0
  1  4  1  0  0  0  0
  4  5  1  0  0  0  0
  4  6  1  0  0  0  0
  4  7  1  0  0  0  0
  7  8  1  0  0  0  0
  7  9  1  0  0  0  0
  7 10  1  0  0  0  0
 10 11  1  0  0  0  0
 10 12  1  0  0  0  0
 10 13  1  0  0  0  0
 13 14  1  0  0  0  0
 13 15  1  0  0  0  0
 13 16  1  0  0  0  0
 16 17  1  0  0  0  0
 16 18  1  0  0  0  0
 16 19  1  0  0  0  0
 19 20  1  0  0  0  0
 19 21  1  0  0  0  0
 19 22  1  0  0  0  0
  1 23  1  0  0  0  0
 23 24  1  0  0  0  0
 23 25  1  0  0  0  0
 23 26  1  0  0  0  0
M  END
> <VM2 Rank>
37

> <Conf_Id>
282

> <Probability>
0.94

> <Sum Probability>
70.85

> <Delta G>
1.208

> <G>
76.674

> <E>
44.177

> <-TS>
32.497

> <U+W>
22.715

> <U>
72.035

> <W>
-49.320

> <W(PB)>
-51.620

> <W(SA)>
2.300

> <Valence>
2.479

> <Coulomb>
69.414

> <VdW>
0.142

> <VdW6>
-6.882

> <VdW12>
7.025

> <Bond>
0.193

> <Angle>
0.854

> <Pdih>
1.433

> <Idih>
0.000

> <Tether>
0.000

$$$$
VeraChem MOL file


 26 25  0  0  0  0  0  0  0  0999 V2000     
   20.0305   18.7533   26.3059 N   0  3  0  0  0  0  0  0  0  0  0  0
   20.8205   18.0919   26.3628 H   0  0  0  0  0  0  0  0  0  0  0  0
   19.2007   18.2158   26.6016 H   0  0  0  0  0  0  0  0  0  0  0  0
   19.8577   19.2402   24.8813 C   0  0  0  0  0  0  0  0  0  0  0  0
   20.7574   19.7970   24.6091 H   0  0  0  0  0  0  0  0  0  0  0  0
   19.0079   19.9271   24.8625 H   0  0  0  0  0  0  0  0  0  0  0  0
   19.6241   18.0992   23.8723 C   0  0  0  0  0  0  0  0  0  0  0  0
   20.4779   17.4088   23.8904 H   0  0  0  0  0  0  0  0  0  0  0  0
   18.7449   17.5201   24.1847 H   0  0  0  0  0  0  0  0  0  0  0  0
   19.3996   18.6108   22.4295 C   0  0  0  0  0  0  0  0  0  0  0  0
   18.5378   19.2924   22.4124 H   0  0  0  0  0  0  0  0  0  0  0  0
   19.1306   17.7533   21.7992 H   0  0  0  0  0  0  0  0  0  0  0  0
   20.6422   19.3229   21.8362 C   0  0  0  0  0  0  0  0  0  0  0  0
   20.9251   20.1659   22.4803 H   0  0  0  0  0  0  0  0  0  0  0  0
   21.4984   18.6343   21.8348 H   0  0  0  0  0  0  0  0  0  0  0  0
   20.4156   19.8669   20.4046 C   0  0  0  0  0  0  0  0  0  0  0  0
   21.2963   20.4535   20.1078 H   0  0  0  0  0  0  0  0  0  0  0  0
   19.5670   20.5653   20.4020 H   0  0  0  0  0  0  0  0  0  0  0  0
   20.1805   18.7584   19.3530 C   0  0  0  0  0  0  0  0  0  0  0  0
   19.2407   18.2224   19.5338 H   0  0  0  0  0  0  0  0  0  0  0  0
   21.0002   18.0283   19.3584 H   0  0  0  0  0  0  0  0  0  0  0  0
   20.1237   19.1909   18.3457 H   0  0  0  0  0  0  0  0  0  0  0  0
   20.2579   19.9383   27.2343 C   0  0  0  0  0  0  0  0  0  0  0  0
   21.1588   20.4713   26.9222 H   0  0  0  0  0  0  0  0  0  0  0  0
   19.3955   20.6064   27.1817 H   0  0  0  0  0  0  0  0  0  0  0  0
   20.3805   19.5739   28.2567 H   0  0  0  0  0  0  0  0  0  0  0  0
  1  2  1  0  0  0  0
  1  3  1  0  0  0  0
  1  4  1  0  0  0  0
  4  5  1  0  0  0  0
  4  6  1  0  0  0  0
  4  7  1  0  0  0  0
  7  8  1  0  0  0  0
  7  9  1  0  0  0  0
  7 10  1  0  0  0  0
 10 11  1  0  0  0  0
 10 12  1  0  0  0  0
 10 13  1  0  0  0  0
 13 14  1  0  0  0  0
 13 15  1  0  0  0  0
 13 16  1  0  0  0  0
 16 17  1  0  0  0  0
 16 18  1  0  0  0  0
 16 19  1  0  0  0  0
 19 20  1  0  0  0  0
 19 21  1  0  0  0  0
 19 22  1  0  0  0  0
  1 23  1  0  0  0  0
 23 24  1  0  0  0  0
 23 25  1  0  0  0  0
 23 26  1  0  0  0  0
M  END
> <VM2 Rank>
38

> <Conf_Id>
422

> <Probability>
0.93

> <Sum Probability>
71.78

> <Delta G>
1.215

> <G>
76.681

> <E>
44.335

> <-TS>
32.346

> <U+W>
22.873

> <U>
71.810

> <W>
-48.937

> <W(PB)>
-51.227

> <W(SA)>
2.290

> <Valence>
2.569

> <Coulomb>
68.877

> <VdW>
0.364

> <VdW6>
-6.470

> <VdW12>
6.834

> <Bond>
0.191

> <Angle>
0.752

> <Pdih>
1.626

> <Idih>
0.000

> <Tether>
0.000

$$$$
VeraChem MOL file


 26 25  0  0  0  0  0  0  0  0999 V2000     
   20.8181   19.1962   25.8741 N   0  3  0  0  0  0  0  0  0  0  0  0
   21.4325   19.6318   25.1702 H   0  0  0  0  0  0  0  0  0  0  0  0
   21.4549   18.8571   26.6126 H   0  0  0  0  0  0  0  0  0  0  0  0
   20.0752   18.0185   25.2625 C   0  0  0  0  0  0  0  0  0  0  0  0
   19.4315   17.5952   26.0378 H   0  0  0  0  0  0  0  0  0  0  0  0
   20.8209   17.2649   24.9968 H   0  0  0  0  0  0  0  0  0  0  0  0
   19.2293   18.3492   24.0133 C   0  0  0  0  0  0  0  0  0  0  0  0
   18.7229   17.4312   23.6868 H   0  0  0  0  0  0  0  0  0  0  0  0
   18.4368   19.0610   24.2784 H   0  0  0  0  0  0  0  0  0  0  0  0
   20.0767   18.9092   22.8463 C   0  0  0  0  0  0  0  0  0  0  0  0
   20.8850   18.2019   22.6183 H   0  0  0  0  0  0  0  0  0  0  0  0
   20.5506   19.8522   23.1495 H   0  0  0  0  0  0  0  0  0  0  0  0
   19.2188   19.1548   21.5817 C   0  0  0  0  0  0  0  0  0  0  0  0
   18.7857   18.2056   21.2370 H   0  0  0  0  0  0  0  0  0  0  0  0
   18.3715   19.8037   21.8435 H   0  0  0  0  0  0  0  0  0  0  0  0
   20.0035   19.8155   20.4224 C   0  0  0  0  0  0  0  0  0  0  0  0
   20.4178   20.7777   20.7546 H   0  0  0  0  0  0  0  0  0  0  0  0
   19.3016   20.0481   19.6093 H   0  0  0  0  0  0  0  0  0  0  0  0
   21.1375   18.9269   19.8621 C   0  0  0  0  0  0  0  0  0  0  0  0
   21.9285   18.7659   20.6049 H   0  0  0  0  0  0  0  0  0  0  0  0
   21.5996   19.4007   18.9864 H   0  0  0  0  0  0  0  0  0  0  0  0
   20.7538   17.9470   19.5497 H   0  0  0  0  0  0  0  0  0  0  0  0
   19.8490   20.2198   26.4545 C   0  0  0  0  0  0  0  0  0  0  0  0
   20.4185   21.0308   26.9138 H   0  0  0  0  0  0  0  0  0  0  0  0
   19.2229   20.6186   25.6537 H   0  0  0  0  0  0  0  0  0  0  0  0
   19.2241   19.7352   27.2078 H   0  0  0  0  0  0  0  0  0  0  0  0
  1  2  1  0  0  0  0
  1  3  1  0  0  0  0
  1  4  1  0  0  0  0
  4  5  1  0  0  0  0
  4  6  1  0  0  0  0
  4  7  1  0  0  0  0
  7  8  1  0  0  0  0
  7  9  1  0  0  0  0
  7 10  1  0  0  0  0
 10 11  1  0  0  0  0
 10 12  1  0  0  0  0
 10 13  1  0  0  0  0
 13 14  1  0  0  0  0
 13 15  1  0  0  0  0
 13 16  1  0  0  0  0
 16 17  1  0  0  0  0
 16 18  1  0  0  0  0
 16 19  1  0  0  0  0
 19 20  1  0  0  0  0
 19 21  1  0  0  0  0
 19 22  1  0  0  0  0
  1 23  1  0  0  0  0
 23 24  1  0  0  0  0
 23 25  1  0  0  0  0
 23 26  1  0  0  0  0
M  END
> <VM2 Rank>
39

> <Conf_Id>
849

> <Probability>
0.92

> <Sum Probability>
72.70

> <Delta G>
1.217

> <G>
76.683

> <E>
44.092

> <-TS>
32.591

> <U+W>
22.630

> <U>
72.183

> <W>
-49.553

> <W(PB)>
-51.789

> <W(SA)>
2.236

> <Valence>
2.592

> <Coulomb>
69.072

> <VdW>
0.519

> <VdW6>
-7.379

> <VdW12>
7.899

> <Bond>
0.219

> <Angle>
0.818

> <Pdih>
1.555

> <Idih>
0.000

> <Tether>
0.000

$$$$
VeraChem MOL file


 26 25  0  0  0  0  0  0  0  0999 V2000     
   19.9247   18.7425   26.3021 N   0  3  0  0  0  0  0  0  0  0  0  0
   20.8232   18.3819   26.6591 H   0  0  0  0  0  0  0  0  0  0  0  0
   19.2829   17.9345   26.3083 H   0  0  0  0  0  0  0  0  0  0  0  0
   20.0947   19.2645   24.8897 C   0  0  0  0  0  0  0  0  0  0  0  0
   20.7872   20.1092   24.9255 H   0  0  0  0  0  0  0  0  0  0  0  0
   19.1223   19.6297   24.5512 H   0  0  0  0  0  0  0  0  0  0  0  0
   20.6244   18.2016   23.9077 C   0  0  0  0  0  0  0  0  0  0  0  0
   21.5784   17.8100   24.2851 H   0  0  0  0  0  0  0  0  0  0  0  0
   19.9288   17.3526   23.8709 H   0  0  0  0  0  0  0  0  0  0  0  0
   20.8412   18.7584   22.4805 C   0  0  0  0  0  0  0  0  0  0  0  0
   21.3215   17.9774   21.8768 H   0  0  0  0  0  0  0  0  0  0  0  0
   21.5464   19.6002   22.5190 H   0  0  0  0  0  0  0  0  0  0  0  0
   19.5250   19.2087   21.7967 C   0  0  0  0  0  0  0  0  0  0  0  0
   18.8279   18.3613   21.7403 H   0  0  0  0  0  0  0  0  0  0  0  0
   19.0332   19.9726   22.4132 H   0  0  0  0  0  0  0  0  0  0  0  0
   19.7366   19.7974   20.3805 C   0  0  0  0  0  0  0  0  0  0  0  0
   20.4246   20.6529   20.4323 H   0  0  0  0  0  0  0  0  0  0  0  0
   18.7785   20.1961   20.0186 H   0  0  0  0  0  0  0  0  0  0  0  0
   20.2638   18.7668   19.3560 C   0  0  0  0  0  0  0  0  0  0  0  0
   19.6102   17.8861   19.3093 H   0  0  0  0  0  0  0  0  0  0  0  0
   21.2775   18.4304   19.6059 H   0  0  0  0  0  0  0  0  0  0  0  0
   20.3023   19.2089   18.3520 H   0  0  0  0  0  0  0  0  0  0  0  0
   19.3976   19.8502   27.2038 C   0  0  0  0  0  0  0  0  0  0  0  0
   19.2799   19.4612   28.2177 H   0  0  0  0  0  0  0  0  0  0  0  0
   20.1086   20.6793   27.2072 H   0  0  0  0  0  0  0  0  0  0  0  0
   18.4318   20.1923   26.8255 H   0  0  0  0  0  0  0  0  0  0  0  0
  1  2  1  0  0  0  0
  1  3  1  0  0  0  0
  1  4  1  0  0  0  0
  4  5  1  0  0  0  0
  4  6  1  0  0  0  0
  4  7  1  0  0  0  0
  7  8  1  0  0  0  0
  7  9  1  0  0  0  0
  7 10  1  0  0  0  0
 10 11  1  0  0  0  0
 10 12  1  0  0  0  0
 10 13  1  0  0  0  0
 13 14  1  0  0  0  0
 13 15  1  0  0  0  0
 13 16  1  0  0  0  0
 16 17  1  0  0  0  0
 16 18  1  0  0  0  0
 16 19  1  0  0  0  0
 19 20  1  0  0  0  0
 19 21  1  0  0  0  0
 19 22  1  0  0  0  0
  1 23  1  0  0  0  0
 23 24  1  0  0  0  0
 23 25  1  0  0  0  0
 23 26  1  0  0  0  0
M  END
> <VM2 Rank>
40

> <Conf_Id>
201

> <Probability>
0.92

> <Sum Probability>
73.62

> <Delta G>
1.220

> <G>
76.686

> <E>
44.340

> <-TS>
32.346

> <U+W>
22.878

> <U>
71.810

> <W>
-48.932

> <W(PB)>
-51.258

> <W(SA)>
2.326

> <Valence>
2.569

> <Coulomb>
68.877

> <VdW>
0.364

> <VdW6>
-6.470

> <VdW12>
6.834

> <Bond>
0.191

> <Angle>
0.752

> <Pdih>
1.626

> <Idih>
0.000

> <Tether>
0.000

$$$$
VeraChem MOL file


 26 25  0  0  0  0  0  0  0  0999 V2000     
   20.4752   19.8101   25.7876 N   0  3  0  0  0  0  0  0  0  0  0  0
   20.4507   20.5014   26.5540 H   0  0  0  0  0  0  0  0  0  0  0  0
   21.0220   20.2602   25.0385 H   0  0  0  0  0  0  0  0  0  0  0  0
   19.0591   19.5329   25.3070 C   0  0  0  0  0  0  0  0  0  0  0  0
   18.5850   20.4989   25.1149 H   0  0  0  0  0  0  0  0  0  0  0  0
   18.5202   19.0518   26.1272 H   0  0  0  0  0  0  0  0  0  0  0  0
   18.9515   18.6603   24.0372 C   0  0  0  0  0  0  0  0  0  0  0  0
   19.3706   17.6648   24.2327 H   0  0  0  0  0  0  0  0  0  0  0  0
   17.8874   18.5084   23.8132 H   0  0  0  0  0  0  0  0  0  0  0  0
   19.6484   19.2963   22.8110 C   0  0  0  0  0  0  0  0  0  0  0  0
   20.7189   19.4144   23.0207 H   0  0  0  0  0  0  0  0  0  0  0  0
   19.2413   20.3024   22.6392 H   0  0  0  0  0  0  0  0  0  0  0  0
   19.4613   18.4383   21.5365 C   0  0  0  0  0  0  0  0  0  0  0  0
   19.9094   17.4466   21.6882 H   0  0  0  0  0  0  0  0  0  0  0  0
   18.3882   18.2701   21.3709 H   0  0  0  0  0  0  0  0  0  0  0  0
   20.0585   19.0856   20.2633 C   0  0  0  0  0  0  0  0  0  0  0  0
   19.5974   20.0688   20.0947 H   0  0  0  0  0  0  0  0  0  0  0  0
   19.7898   18.4678   19.3949 H   0  0  0  0  0  0  0  0  0  0  0  0
   21.5964   19.2339   20.3116 C   0  0  0  0  0  0  0  0  0  0  0  0
   22.0804   18.2690   20.5106 H   0  0  0  0  0  0  0  0  0  0  0  0
   21.9096   19.9429   21.0879 H   0  0  0  0  0  0  0  0  0  0  0  0
   21.9764   19.6079   19.3520 H   0  0  0  0  0  0  0  0  0  0  0  0
   21.1576   18.5325   26.2629 C   0  0  0  0  0  0  0  0  0  0  0  0
   20.5664   18.0878   27.0663 H   0  0  0  0  0  0  0  0  0  0  0  0
   21.2353   17.8328   25.4283 H   0  0  0  0  0  0  0  0  0  0  0  0
   22.1563   18.7767   26.6317 H   0  0  0  0  0  0  0  0  0  0  0  0
  1  2  1  0  0  0  0
  1  3  1  0  0  0  0
  1  4  1  0  0  0  0
  4  5  1  0  0  0  0
  4  6  1  0  0  0  0
  4  7  1  0  0  0  0
  7  8  1  0  0  0  0
  7  9  1  0  0  0  0
  7 10  1  0  0  0  0
 10 11  1  0  0  0  0
 10 12  1  0  0  0  0
 10 13  1  0  0  0  0
 13 14  1  0  0  0  0
 13 15  1  0  0  0  0
 13 16  1  0  0  0  0
 16 17  1  0  0  0  0
 16 18  1  0  0  0  0
 16 19  1  0  0  0  0
 19 20  1  0  0  0  0
 19 21  1  0  0  0  0
 19 22  1  0  0  0  0
  1 23  1  0  0  0  0
 23 24  1  0  0  0  0
 23 25  1  0  0  0  0
 23 26  1  0  0  0  0
M  END
> <VM2 Rank>
41

> <Conf_Id>
779

> <Probability>
0.88

> <Sum Probability>
74.51

> <Delta G>
1.244

> <G>
76.710

> <E>
44.124

> <-TS>
32.585

> <U+W>
22.663

> <U>
72.301

> <W>
-49.638

> <W(PB)>
-51.896

> <W(SA)>
2.258

> <Valence>
2.588

> <Coulomb>
69.202

> <VdW>
0.511

> <VdW6>
-7.408

> <VdW12>
7.919

> <Bond>
0.221

> <Angle>
0.820

> <Pdih>
1.547

> <Idih>
0.000

> <Tether>
0.000

$$$$
VeraChem MOL file


 26 25  0  0  0  0  0  0  0  0999 V2000     
   20.2417   18.7816   26.0449 N   0  3  0  0  0  0  0  0  0  0  0  0
   21.2125   18.8820   25.7124 H   0  0  0  0  0  0  0  0  0  0  0  0
   20.0564   17.7666   26.0546 H   0  0  0  0  0  0  0  0  0  0  0  0
   19.2890   19.4768   25.0914 C   0  0  0  0  0  0  0  0  0  0  0  0
   19.5218   20.5446   25.0999 H   0  0  0  0  0  0  0  0  0  0  0  0
   18.2775   19.3452   25.4839 H   0  0  0  0  0  0  0  0  0  0  0  0
   19.3480   18.9445   23.6458 C   0  0  0  0  0  0  0  0  0  0  0  0
   19.1344   17.8674   23.6430 H   0  0  0  0  0  0  0  0  0  0  0  0
   18.5434   19.4258   23.0764 H   0  0  0  0  0  0  0  0  0  0  0  0
   20.7118   19.2189   22.9629 C   0  0  0  0  0  0  0  0  0  0  0  0
   21.5163   18.7707   23.5607 H   0  0  0  0  0  0  0  0  0  0  0  0
   20.9063   20.3003   22.9457 H   0  0  0  0  0  0  0  0  0  0  0  0
   20.8090   18.6523   21.5246 C   0  0  0  0  0  0  0  0  0  0  0  0
   21.8414   18.7796   21.1704 H   0  0  0  0  0  0  0  0  0  0  0  0
   20.6213   17.5698   21.5414 H   0  0  0  0  0  0  0  0  0  0  0  0
   19.8478   19.3333   20.5213 C   0  0  0  0  0  0  0  0  0  0  0  0
   19.9977   20.4218   20.5438 H   0  0  0  0  0  0  0  0  0  0  0  0
   18.8044   19.1494   20.8095 H   0  0  0  0  0  0  0  0  0  0  0  0
   20.0669   18.8170   19.0831 C   0  0  0  0  0  0  0  0  0  0  0  0
   19.8951   17.7344   19.0220 H   0  0  0  0  0  0  0  0  0  0  0  0
   21.0902   19.0205   18.7415 H   0  0  0  0  0  0  0  0  0  0  0  0
   19.3757   19.3075   18.3855 H   0  0  0  0  0  0  0  0  0  0  0  0
   20.0937   19.3656   27.4430 C   0  0  0  0  0  0  0  0  0  0  0  0
   20.3255   20.4325   27.4129 H   0  0  0  0  0  0  0  0  0  0  0  0
   19.0672   19.2194   27.7863 H   0  0  0  0  0  0  0  0  0  0  0  0
   20.7847   18.8568   28.1188 H   0  0  0  0  0  0  0  0  0  0  0  0
  1  2  1  0  0  0  0
  1  3  1  0  0  0  0
  1  4  1  0  0  0  0
  4  5  1  0  0  0  0
  4  6  1  0  0  0  0
  4  7  1  0  0  0  0
  7  8  1  0  0  0  0
  7  9  1  0  0  0  0
  7 10  1  0  0  0  0
 10 11  1  0  0  0  0
 10 12  1  0  0  0  0
 10 13  1  0  0  0  0
 13 14  1  0  0  0  0
 13 15  1  0  0  0  0
 13 16  1  0  0  0  0
 16 17  1  0  0  0  0
 16 18  1  0  0  0  0
 16 19  1  0  0  0  0
 19 20  1  0  0  0  0
 19 21  1  0  0  0  0
 19 22  1  0  0  0  0
  1 23  1  0  0  0  0
 23 24  1  0  0  0  0
 23 25  1  0  0  0  0
 23 26  1  0  0  0  0
M  END
> <VM2 Rank>
42

> <Conf_Id>
1019

> <Probability>
0.87

> <Sum Probability>
75.38

> <Delta G>
1.253

> <G>
76.720

> <E>
44.390

> <-TS>
32.330

> <U+W>
22.928

> <U>
71.903

> <W>
-48.975

> <W(PB)>
-51.297

> <W(SA)>
2.321

> <Valence>
2.409

> <Coulomb>
69.133

> <VdW>
0.360

> <VdW6>
-6.461

> <VdW12>
6.822

> <Bond>
0.187

> <Angle>
0.708

> <Pdih>
1.514

> <Idih>
0.000

> <Tether>
0.000

$$$$
VeraChem MOL file


 26 25  0  0  0  0  0  0  0  0999 V2000     
   19.4573   19.1248   26.0200 N   0  3  0  0  0  0  0  0  0  0  0  0
   19.2759   18.7970   26.9821 H   0  0  0  0  0  0  0  0  0  0  0  0
   18.5629   19.0020   25.5223 H   0  0  0  0  0  0  0  0  0  0  0  0
   20.5332   18.2597   25.3821 C   0  0  0  0  0  0  0  0  0  0  0  0
   20.2406   17.2165   25.5259 H   0  0  0  0  0  0  0  0  0  0  0  0
   21.4622   18.4270   25.9330 H   0  0  0  0  0  0  0  0  0  0  0  0
   20.7727   18.5106   23.8772 C   0  0  0  0  0  0  0  0  0  0  0  0
   21.1309   19.5369   23.7320 H   0  0  0  0  0  0  0  0  0  0  0  0
   21.5819   17.8488   23.5413 H   0  0  0  0  0  0  0  0  0  0  0  0
   19.5081   18.2511   23.0208 C   0  0  0  0  0  0  0  0  0  0  0  0
   18.7194   18.9671   23.2884 H   0  0  0  0  0  0  0  0  0  0  0  0
   19.1148   17.2529   23.2583 H   0  0  0  0  0  0  0  0  0  0  0  0
   19.7691   18.3265   21.4963 C   0  0  0  0  0  0  0  0  0  0  0  0
   20.5432   17.5980   21.2181 H   0  0  0  0  0  0  0  0  0  0  0  0
   18.8544   18.0190   20.9707 H   0  0  0  0  0  0  0  0  0  0  0  0
   20.1794   19.7363   21.0082 C   0  0  0  0  0  0  0  0  0  0  0  0
   21.1339   20.0326   21.4632 H   0  0  0  0  0  0  0  0  0  0  0  0
   19.4305   20.4733   21.3302 H   0  0  0  0  0  0  0  0  0  0  0  0
   20.3202   19.7884   19.4718 C   0  0  0  0  0  0  0  0  0  0  0  0
   21.0845   19.0825   19.1214 H   0  0  0  0  0  0  0  0  0  0  0  0
   20.6143   20.7936   19.1432 H   0  0  0  0  0  0  0  0  0  0  0  0
   19.3717   19.5376   18.9791 H   0  0  0  0  0  0  0  0  0  0  0  0
   19.8681   20.5926   26.0406 C   0  0  0  0  0  0  0  0  0  0  0  0
   19.0881   21.1751   26.5361 H   0  0  0  0  0  0  0  0  0  0  0  0
   20.8079   20.6944   26.5876 H   0  0  0  0  0  0  0  0  0  0  0  0
   19.9951   20.9464   25.0155 H   0  0  0  0  0  0  0  0  0  0  0  0
  1  2  1  0  0  0  0
  1  3  1  0  0  0  0
  1  4  1  0  0  0  0
  4  5  1  0  0  0  0
  4  6  1  0  0  0  0
  4  7  1  0  0  0  0
  7  8  1  0  0  0  0
  7  9  1  0  0  0  0
  7 10  1  0  0  0  0
 10 11  1  0  0  0  0
 10 12  1  0  0  0  0
 10 13  1  0  0  0  0
 13 14  1  0  0  0  0
 13 15  1  0  0  0  0
 13 16  1  0  0  0  0
 16 17  1  0  0  0  0
 16 18  1  0  0  0  0
 16 19  1  0  0  0  0
 19 20  1  0  0  0  0
 19 21  1  0  0  0  0
 19 22  1  0  0  0  0
  1 23  1  0  0  0  0
 23 24  1  0  0  0  0
 23 25  1  0  0  0  0
 23 26  1  0  0  0  0
M  END
> <VM2 Rank>
43

> <Conf_Id>
444

> <Probability>
0.85

> <Sum Probability>
76.23

> <Delta G>
1.265

> <G>
76.731

> <E>
44.141

> <-TS>
32.591

> <U+W>
22.679

> <U>
72.280

> <W>
-49.601

> <W(PB)>
-51.847

> <W(SA)>
2.246

> <Valence>
2.616

> <Coulomb>
69.198

> <VdW>
0.465

> <VdW6>
-7.468

> <VdW12>
7.934

> <Bond>
0.224

> <Angle>
0.811

> <Pdih>
1.582

> <Idih>
0.000

> <Tether>
0.000

$$$$
VeraChem MOL file


 26 25  0  0  0  0  0  0  0  0999 V2000     
   19.0960   19.0198   25.8131 N   0  3  0  0  0  0  0  0  0  0  0  0
   18.4910   18.5533   26.5076 H   0  0  0  0  0  0  0  0  0  0  0  0
   18.4569   19.3270   25.0648 H   0  0  0  0  0  0  0  0  0  0  0  0
   20.1030   18.0214   25.2635 C   0  0  0  0  0  0  0  0  0  0  0  0
   19.5458   17.1343   24.9516 H   0  0  0  0  0  0  0  0  0  0  0  0
   20.7631   17.7316   26.0849 H   0  0  0  0  0  0  0  0  0  0  0  0
   20.9497   18.5255   24.0743 C   0  0  0  0  0  0  0  0  0  0  0  0
   21.5609   19.3812   24.3890 H   0  0  0  0  0  0  0  0  0  0  0  0
   21.6532   17.7316   23.7906 H   0  0  0  0  0  0  0  0  0  0  0  0
   20.0902   18.9106   22.8467 C   0  0  0  0  0  0  0  0  0  0  0  0
   19.4151   19.7359   23.1093 H   0  0  0  0  0  0  0  0  0  0  0  0
   19.4600   18.0558   22.5677 H   0  0  0  0  0  0  0  0  0  0  0  0
   20.9670   19.3339   21.6436 C   0  0  0  0  0  0  0  0  0  0  0  0
   21.6448   20.1391   21.9594 H   0  0  0  0  0  0  0  0  0  0  0  0
   21.6065   18.4947   21.3369 H   0  0  0  0  0  0  0  0  0  0  0  0
   20.1480   19.8303   20.4274 C   0  0  0  0  0  0  0  0  0  0  0  0
   20.8434   20.2060   19.6638 H   0  0  0  0  0  0  0  0  0  0  0  0
   19.5251   20.6862   20.7228 H   0  0  0  0  0  0  0  0  0  0  0  0
   19.2595   18.7344   19.7956 C   0  0  0  0  0  0  0  0  0  0  0  0
   18.7735   19.1110   18.8863 H   0  0  0  0  0  0  0  0  0  0  0  0
   18.4674   18.4113   20.4824 H   0  0  0  0  0  0  0  0  0  0  0  0
   19.8546   17.8548   19.5179 H   0  0  0  0  0  0  0  0  0  0  0  0
   19.7946   20.2141   26.4527 C   0  0  0  0  0  0  0  0  0  0  0  0
   20.4503   19.8607   27.2513 H   0  0  0  0  0  0  0  0  0  0  0  0
   20.3815   20.7372   25.6950 H   0  0  0  0  0  0  0  0  0  0  0  0
   19.0419   20.8896   26.8652 H   0  0  0  0  0  0  0  0  0  0  0  0
  1  2  1  0  0  0  0
  1  3  1  0  0  0  0
  1  4  1  0  0  0  0
  4  5  1  0  0  0  0
  4  6  1  0  0  0  0
  4  7  1  0  0  0  0
  7  8  1  0  0  0  0
  7  9  1  0  0  0  0
  7 10  1  0  0  0  0
 10 11  1  0  0  0  0
 10 12  1  0  0  0  0
 10 13  1  0  0  0  0
 13 14  1  0  0  0  0
 13 15  1  0  0  0  0
 13 16  1  0  0  0  0
 16 17  1  0  0  0  0
 16 18  1  0  0  0  0
 16 19  1  0  0  0  0
 19 20  1  0  0  0  0
 19 21  1  0  0  0  0
 19 22  1  0  0  0  0
  1 23  1  0  0  0  0
 23 24  1  0  0  0  0
 23 25  1  0  0  0  0
 23 26  1  0  0  0  0
M  END
> <VM2 Rank>
44

> <Conf_Id>
1107

> <Probability>
0.84

> <Sum Probability>
77.07

> <Delta G>
1.273

> <G>
76.739

> <E>
44.148

> <-TS>
32.591

> <U+W>
22.686

> <U>
72.183

> <W>
-49.497

> <W(PB)>
-51.756

> <W(SA)>
2.258

> <Valence>
2.592

> <Coulomb>
69.072

> <VdW>
0.519

> <VdW6>
-7.379

> <VdW12>
7.898

> <Bond>
0.219

> <Angle>
0.818

> <Pdih>
1.555

> <Idih>
0.000

> <Tether>
0.000

$$$$
VeraChem MOL file


 26 25  0  0  0  0  0  0  0  0999 V2000     
   20.4294   19.2247   26.0545 N   0  3  0  0  0  0  0  0  0  0  0  0
   21.3627   19.2899   25.6215 H   0  0  0  0  0  0  0  0  0  0  0  0
   20.6059   18.9337   27.0292 H   0  0  0  0  0  0  0  0  0  0  0  0
   19.5992   18.1636   25.3490 C   0  0  0  0  0  0  0  0  0  0  0  0
   18.6193   18.1346   25.8323 H   0  0  0  0  0  0  0  0  0  0  0  0
   20.0869   17.2007   25.5204 H   0  0  0  0  0  0  0  0  0  0  0  0
   19.4195   18.3714   23.8293 C   0  0  0  0  0  0  0  0  0  0  0  0
   18.7873   17.5614   23.4424 H   0  0  0  0  0  0  0  0  0  0  0  0
   18.8713   19.3046   23.6520 H   0  0  0  0  0  0  0  0  0  0  0  0
   20.7673   18.3807   23.0654 C   0  0  0  0  0  0  0  0  0  0  0  0
   21.3377   17.4815   23.3370 H   0  0  0  0  0  0  0  0  0  0  0  0
   21.3732   19.2401   23.3823 H   0  0  0  0  0  0  0  0  0  0  0  0
   20.6037   18.4124   21.5258 C   0  0  0  0  0  0  0  0  0  0  0  0
   21.5963   18.3011   21.0678 H   0  0  0  0  0  0  0  0  0  0  0  0
   20.0153   17.5437   21.1994 H   0  0  0  0  0  0  0  0  0  0  0  0
   19.9505   19.7128   21.0000 C   0  0  0  0  0  0  0  0  0  0  0  0
   20.5095   20.5843   21.3683 H   0  0  0  0  0  0  0  0  0  0  0  0
   18.9263   19.8055   21.3849 H   0  0  0  0  0  0  0  0  0  0  0  0
   19.9101   19.7461   19.4572 C   0  0  0  0  0  0  0  0  0  0  0  0
   19.4415   20.6729   19.1016 H   0  0  0  0  0  0  0  0  0  0  0  0
   19.3317   18.9021   19.0593 H   0  0  0  0  0  0  0  0  0  0  0  0
   20.9218   19.6970   19.0340 H   0  0  0  0  0  0  0  0  0  0  0  0
   19.7284   20.5783   26.0357 C   0  0  0  0  0  0  0  0  0  0  0  0
   19.6042   20.9062   25.0017 H   0  0  0  0  0  0  0  0  0  0  0  0
   18.7516   20.4829   26.5148 H   0  0  0  0  0  0  0  0  0  0  0  0
   20.3371   21.3035   26.5804 H   0  0  0  0  0  0  0  0  0  0  0  0
  1  2  1  0  0  0  0
  1  3  1  0  0  0  0
  1  4  1  0  0  0  0
  4  5  1  0  0  0  0
  4  6  1  0  0  0  0
  4  7  1  0  0  0  0
  7  8  1  0  0  0  0
  7  9  1  0  0  0  0
  7 10  1  0  0  0  0
 10 11  1  0  0  0  0
 10 12  1  0  0  0  0
 10 13  1  0  0  0  0
 13 14  1  0  0  0  0
 13 15  1  0  0  0  0
 13 16  1  0  0  0  0
 16 17  1  0  0  0  0
 16 18  1  0  0  0  0
 16 19  1  0  0  0  0
 19 20  1  0  0  0  0
 19 21  1  0  0  0  0
 19 22  1  0  0  0  0
  1 23  1  0  0  0  0
 23 24  1  0  0  0  0
 23 25  1  0  0  0  0
 23 26  1  0  0  0  0
M  END
> <VM2 Rank>
45

> <Conf_Id>
1347

> <Probability>
0.81

> <Sum Probability>
77.88

> <Delta G>
1.293

> <G>
76.759

> <E>
44.168

> <-TS>
32.591

> <U+W>
22.706

> <U>
72.280

> <W>
-49.574

> <W(PB)>
-51.820

> <W(SA)>
2.246

> <Valence>
2.616

> <Coulomb>
69.198

> <VdW>
0.465

> <VdW6>
-7.468

> <VdW12>
7.934

> <Bond>
0.224

> <Angle>
0.811

> <Pdih>
1.582

> <Idih>
0.000

> <Tether>
0.000

$$$$
VeraChem MOL file


 26 25  0  0  0  0  0  0  0  0999 V2000     
   19.7800   18.4759   26.0480 N   0  3  0  0  0  0  0  0  0  0  0  0
   20.6693   17.9777   26.2084 H   0  0  0  0  0  0  0  0  0  0  0  0
   19.1071   17.7498   25.7569 H   0  0  0  0  0  0  0  0  0  0  0  0
   19.9481   19.5046   24.9478 C   0  0  0  0  0  0  0  0  0  0  0  0
   20.6721   20.2476   25.2916 H   0  0  0  0  0  0  0  0  0  0  0  0
   18.9858   20.0022   24.8041 H   0  0  0  0  0  0  0  0  0  0  0  0
   20.4217   18.8983   23.6144 C   0  0  0  0  0  0  0  0  0  0  0  0
   21.3808   18.3858   23.7663 H   0  0  0  0  0  0  0  0  0  0  0  0
   19.6970   18.1414   23.2887 H   0  0  0  0  0  0  0  0  0  0  0  0
   20.5791   19.9858   22.5258 C   0  0  0  0  0  0  0  0  0  0  0  0
   21.2468   20.7731   22.9023 H   0  0  0  0  0  0  0  0  0  0  0  0
   19.6116   20.4730   22.3447 H   0  0  0  0  0  0  0  0  0  0  0  0
   21.1602   19.4496   21.1917 C   0  0  0  0  0  0  0  0  0  0  0  0
   21.2757   20.2909   20.4945 H   0  0  0  0  0  0  0  0  0  0  0  0
   22.1748   19.0681   21.3716 H   0  0  0  0  0  0  0  0  0  0  0  0
   20.3247   18.3401   20.5031 C   0  0  0  0  0  0  0  0  0  0  0  0
   20.2984   17.4393   21.1307 H   0  0  0  0  0  0  0  0  0  0  0  0
   20.8343   18.0439   19.5756 H   0  0  0  0  0  0  0  0  0  0  0  0
   18.8831   18.7792   20.1596 C   0  0  0  0  0  0  0  0  0  0  0  0
   18.2949   18.9732   21.0652 H   0  0  0  0  0  0  0  0  0  0  0  0
   18.3667   17.9939   19.5926 H   0  0  0  0  0  0  0  0  0  0  0  0
   18.8833   19.6903   19.5474 H   0  0  0  0  0  0  0  0  0  0  0  0
   19.3112   19.1566   27.3265 C   0  0  0  0  0  0  0  0  0  0  0  0
   20.0541   19.8964   27.6327 H   0  0  0  0  0  0  0  0  0  0  0  0
   18.3536   19.6483   27.1412 H   0  0  0  0  0  0  0  0  0  0  0  0
   19.1942   18.4049   28.1104 H   0  0  0  0  0  0  0  0  0  0  0  0
  1  2  1  0  0  0  0
  1  3  1  0  0  0  0
  1  4  1  0  0  0  0
  4  5  1  0  0  0  0
  4  6  1  0  0  0  0
  4  7  1  0  0  0  0
  7  8  1  0  0  0  0
  7  9  1  0  0  0  0
  7 10  1  0  0  0  0
 10 11  1  0  0  0  0
 10 12  1  0  0  0  0
 10 13  1  0  0  0  0
 13 14  1  0  0  0  0
 13 15  1  0  0  0  0
 13 16  1  0  0  0  0
 16 17  1  0  0  0  0
 16 18  1  0  0  0  0
 16 19  1  0  0  0  0
 19 20  1  0  0  0  0
 19 21  1  0  0  0  0
 19 22  1  0  0  0  0
  1 23  1  0  0  0  0
 23 24  1  0  0  0  0
 23 25  1  0  0  0  0
 23 26  1  0  0  0  0
M  END
> <VM2 Rank>
46

> <Conf_Id>
1231

> <Probability>
0.79

> <Sum Probability>
78.67

> <Delta G>
1.313

> <G>
76.779

> <E>
44.190

> <-TS>
32.588

> <U+W>
22.729

> <U>
71.870

> <W>
-49.141

> <W(PB)>
-51.404

> <W(SA)>
2.262

> <Valence>
2.682

> <Coulomb>
68.933

> <VdW>
0.255

> <VdW6>
-6.832

> <VdW12>
7.087

> <Bond>
0.205

> <Angle>
1.003

> <Pdih>
1.473

> <Idih>
0.000

> <Tether>
0.000

$$$$
VeraChem MOL file


 26 25  0  0  0  0  0  0  0  0999 V2000     
   19.6734   18.4755   26.2511 N   0  3  0  0  0  0  0  0  0  0  0  0
   20.5161   18.0098   26.6219 H   0  0  0  0  0  0  0  0  0  0  0  0
   18.8825   17.9074   26.5940 H   0  0  0  0  0  0  0  0  0  0  0  0
   19.6901   18.4600   24.7319 C   0  0  0  0  0  0  0  0  0  0  0  0
   18.8050   18.9966   24.3824 H   0  0  0  0  0  0  0  0  0  0  0  0
   19.6019   17.4173   24.4162 H   0  0  0  0  0  0  0  0  0  0  0  0
   20.9598   19.0690   24.0996 C   0  0  0  0  0  0  0  0  0  0  0  0
   21.0456   20.1280   24.3754 H   0  0  0  0  0  0  0  0  0  0  0  0
   21.8433   18.5644   24.5122 H   0  0  0  0  0  0  0  0  0  0  0  0
   20.9780   18.9353   22.5587 C   0  0  0  0  0  0  0  0  0  0  0  0
   20.9319   17.8716   22.2900 H   0  0  0  0  0  0  0  0  0  0  0  0
   21.9398   19.3109   22.1831 H   0  0  0  0  0  0  0  0  0  0  0  0
   19.8242   19.7089   21.8713 C   0  0  0  0  0  0  0  0  0  0  0  0
   18.8558   19.2809   22.1630 H   0  0  0  0  0  0  0  0  0  0  0  0
   19.8246   20.7475   22.2300 H   0  0  0  0  0  0  0  0  0  0  0  0
   19.9289   19.7226   20.3270 C   0  0  0  0  0  0  0  0  0  0  0  0
   20.8825   20.1765   20.0227 H   0  0  0  0  0  0  0  0  0  0  0  0
   19.1382   20.3718   19.9255 H   0  0  0  0  0  0  0  0  0  0  0  0
   19.7940   18.3206   19.6903 C   0  0  0  0  0  0  0  0  0  0  0  0
   20.6309   17.6686   19.9696 H   0  0  0  0  0  0  0  0  0  0  0  0
   19.7855   18.3952   18.5952 H   0  0  0  0  0  0  0  0  0  0  0  0
   18.8601   17.8340   20.0005 H   0  0  0  0  0  0  0  0  0  0  0  0
   19.5596   19.8981   26.7870 C   0  0  0  0  0  0  0  0  0  0  0  0
   18.6505   20.3581   26.3935 H   0  0  0  0  0  0  0  0  0  0  0  0
   19.5141   19.8662   27.8779 H   0  0  0  0  0  0  0  0  0  0  0  0
   20.4324   20.4740   26.4730 H   0  0  0  0  0  0  0  0  0  0  0  0
  1  2  1  0  0  0  0
  1  3  1  0  0  0  0
  1  4  1  0  0  0  0
  4  5  1  0  0  0  0
  4  6  1  0  0  0  0
  4  7  1  0  0  0  0
  7  8  1  0  0  0  0
  7  9  1  0  0  0  0
  7 10  1  0  0  0  0
 10 11  1  0  0  0  0
 10 12  1  0  0  0  0
 10 13  1  0  0  0  0
 13 14  1  0  0  0  0
 13 15  1  0  0  0  0
 13 16  1  0  0  0  0
 16 17  1  0  0  0  0
 16 18  1  0  0  0  0
 16 19  1  0  0  0  0
 19 20  1  0  0  0  0
 19 21  1  0  0  0  0
 19 22  1  0  0  0  0
  1 23  1  0  0  0  0
 23 24  1  0  0  0  0
 23 25  1  0  0  0  0
 23 26  1  0  0  0  0
M  END
> <VM2 Rank>
47

> <Conf_Id>
175

> <Probability>
0.78

> <Sum Probability>
79.45

> <Delta G>
1.315

> <G>
76.781

> <E>
44.237

> <-TS>
32.544

> <U+W>
22.775

> <U>
72.114

> <W>
-49.339

> <W(PB)>
-51.571

> <W(SA)>
2.232

> <Valence>
2.783

> <Coulomb>
68.782

> <VdW>
0.549

> <VdW6>
-7.241

> <VdW12>
7.790

> <Bond>
0.221

> <Angle>
0.803

> <Pdih>
1.759

> <Idih>
0.000

> <Tether>
0.000

$$$$
VeraChem MOL file


 26 25  0  0  0  0  0  0  0  0999 V2000     
   20.2430   18.5230   26.0642 N   0  3  0  0  0  0  0  0  0  0  0  0
   21.0672   17.9495   25.8262 H   0  0  0  0  0  0  0  0  0  0  0  0
   19.4634   17.8546   26.1654 H   0  0  0  0  0  0  0  0  0  0  0  0
   19.9485   19.5046   24.9478 C   0  0  0  0  0  0  0  0  0  0  0  0
   20.7986   20.1870   24.8683 H   0  0  0  0  0  0  0  0  0  0  0  0
   19.0675   20.0841   25.2348 H   0  0  0  0  0  0  0  0  0  0  0  0
   19.7014   18.8250   23.5889 C   0  0  0  0  0  0  0  0  0  0  0  0
   20.5846   18.2319   23.3201 H   0  0  0  0  0  0  0  0  0  0  0  0
   18.8568   18.1288   23.6768 H   0  0  0  0  0  0  0  0  0  0  0  0
   19.4049   19.8663   22.4842 C   0  0  0  0  0  0  0  0  0  0  0  0
   20.2647   20.5396   22.3679 H   0  0  0  0  0  0  0  0  0  0  0  0
   18.5675   20.5004   22.8073 H   0  0  0  0  0  0  0  0  0  0  0  0
   19.0386   19.2337   21.1165 C   0  0  0  0  0  0  0  0  0  0  0  0
   18.1114   18.6546   21.2275 H   0  0  0  0  0  0  0  0  0  0  0  0
   18.8054   20.0395   20.4069 H   0  0  0  0  0  0  0  0  0  0  0  0
   20.1265   18.3199   20.4961 C   0  0  0  0  0  0  0  0  0  0  0  0
   19.7533   17.9339   19.5372 H   0  0  0  0  0  0  0  0  0  0  0  0
   20.2893   17.4383   21.1304 H   0  0  0  0  0  0  0  0  0  0  0  0
   21.4708   19.0425   20.2516 C   0  0  0  0  0  0  0  0  0  0  0  0
   21.9428   19.3443   21.1949 H   0  0  0  0  0  0  0  0  0  0  0  0
   21.3303   19.9393   19.6344 H   0  0  0  0  0  0  0  0  0  0  0  0
   22.1731   18.3813   19.7279 H   0  0  0  0  0  0  0  0  0  0  0  0
   20.4743   19.2749   27.3677 C   0  0  0  0  0  0  0  0  0  0  0  0
   19.5779   19.8475   27.6159 H   0  0  0  0  0  0  0  0  0  0  0  0
   20.6852   18.5566   28.1631 H   0  0  0  0  0  0  0  0  0  0  0  0
   21.3236   19.9509   27.2465 H   0  0  0  0  0  0  0  0  0  0  0  0
  1  2  1  0  0  0  0
  1  3  1  0  0  0  0
  1  4  1  0  0  0  0
  4  5  1  0  0  0  0
  4  6  1  0  0  0  0
  4  7  1  0  0  0  0
  7  8  1  0  0  0  0
  7  9  1  0  0  0  0
  7 10  1  0  0  0  0
 10 11  1  0  0  0  0
 10 12  1  0  0  0  0
 10 13  1  0  0  0  0
 13 14  1  0  0  0  0
 13 15  1  0  0  0  0
 13 16  1  0  0  0  0
 16 17  1  0  0  0  0
 16 18  1  0  0  0  0
 16 19  1  0  0  0  0
 19 20  1  0  0  0  0
 19 21  1  0  0  0  0
 19 22  1  0  0  0  0
  1 23  1  0  0  0  0
 23 24  1  0  0  0  0
 23 25  1  0  0  0  0
 23 26  1  0  0  0  0
M  END
> <VM2 Rank>
48

> <Conf_Id>
1070

> <Probability>
0.76

> <Sum Probability>
80.21

> <Delta G>
1.336

> <G>
76.802

> <E>
44.213

> <-TS>
32.589

> <U+W>
22.751

> <U>
71.870

> <W>
-49.119

> <W(PB)>
-51.409

> <W(SA)>
2.290

> <Valence>
2.682

> <Coulomb>
68.933

> <VdW>
0.255

> <VdW6>
-6.833

> <VdW12>
7.088

> <Bond>
0.205

> <Angle>
1.003

> <Pdih>
1.473

> <Idih>
0.000

> <Tether>
0.000

$$$$
VeraChem MOL file


 26 25  0  0  0  0  0  0  0  0999 V2000     
   19.4262   19.0855   26.1424 N   0  3  0  0  0  0  0  0  0  0  0  0
   18.7697   18.4099   25.7238 H   0  0  0  0  0  0  0  0  0  0  0  0
   18.9197   19.4874   26.9473 H   0  0  0  0  0  0  0  0  0  0  0  0
   19.7513   20.1866   25.1449 C   0  0  0  0  0  0  0  0  0  0  0  0
   20.4535   20.8712   25.6273 H   0  0  0  0  0  0  0  0  0  0  0  0
   18.8263   20.7359   24.9519 H   0  0  0  0  0  0  0  0  0  0  0  0
   20.3405   19.7085   23.7994 C   0  0  0  0  0  0  0  0  0  0  0  0
   20.5723   20.5978   23.2006 H   0  0  0  0  0  0  0  0  0  0  0  0
   21.2945   19.1942   23.9725 H   0  0  0  0  0  0  0  0  0  0  0  0
   19.3739   18.7848   23.0161 C   0  0  0  0  0  0  0  0  0  0  0  0
   18.4302   19.3137   22.8233 H   0  0  0  0  0  0  0  0  0  0  0  0
   19.1199   17.9153   23.6367 H   0  0  0  0  0  0  0  0  0  0  0  0
   19.9601   18.2659   21.6797 C   0  0  0  0  0  0  0  0  0  0  0  0
   20.9008   17.7318   21.8727 H   0  0  0  0  0  0  0  0  0  0  0  0
   19.2660   17.5241   21.2610 H   0  0  0  0  0  0  0  0  0  0  0  0
   20.1969   19.3783   20.6305 C   0  0  0  0  0  0  0  0  0  0  0  0
   20.9511   20.0889   20.9933 H   0  0  0  0  0  0  0  0  0  0  0  0
   19.2696   19.9478   20.4774 H   0  0  0  0  0  0  0  0  0  0  0  0
   20.6678   18.7963   19.2805 C   0  0  0  0  0  0  0  0  0  0  0  0
   21.6102   18.2451   19.3956 H   0  0  0  0  0  0  0  0  0  0  0  0
   20.8339   19.5981   18.5494 H   0  0  0  0  0  0  0  0  0  0  0  0
   19.9194   18.1102   18.8629 H   0  0  0  0  0  0  0  0  0  0  0  0
   20.6913   18.3842   26.6235 C   0  0  0  0  0  0  0  0  0  0  0  0
   21.3591   19.1200   27.0767 H   0  0  0  0  0  0  0  0  0  0  0  0
   20.4209   17.6269   27.3627 H   0  0  0  0  0  0  0  0  0  0  0  0
   21.1854   17.9081   25.7741 H   0  0  0  0  0  0  0  0  0  0  0  0
  1  2  1  0  0  0  0
  1  3  1  0  0  0  0
  1  4  1  0  0  0  0
  4  5  1  0  0  0  0
  4  6  1  0  0  0  0
  4  7  1  0  0  0  0
  7  8  1  0  0  0  0
  7  9  1  0  0  0  0
  7 10  1  0  0  0  0
 10 11  1  0  0  0  0
 10 12  1  0  0  0  0
 10 13  1  0  0  0  0
 13 14  1  0  0  0  0
 13 15  1  0  0  0  0
 13 16  1  0  0  0  0
 16 17  1  0  0  0  0
 16 18  1  0  0  0  0
 16 19  1  0  0  0  0
 19 20  1  0  0  0  0
 19 21  1  0  0  0  0
 19 22  1  0  0  0  0
  1 23  1  0  0  0  0
 23 24  1  0  0  0  0
 23 25  1  0  0  0  0
 23 26  1  0  0  0  0
M  END
> <VM2 Rank>
49

> <Conf_Id>
283

> <Probability>
0.76

> <Sum Probability>
80.97

> <Delta G>
1.337

> <G>
76.803

> <E>
44.254

> <-TS>
32.549

> <U+W>
22.792

> <U>
72.239

> <W>
-49.447

> <W(PB)>
-51.685

> <W(SA)>
2.238

> <Valence>
2.658

> <Coulomb>
69.025

> <VdW>
0.556

> <VdW6>
-7.358

> <VdW12>
7.914

> <Bond>
0.229

> <Angle>
0.883

> <Pdih>
1.546

> <Idih>
0.000

> <Tether>
0.000

$$$$
VeraChem MOL file


 26 25  0  0  0  0  0  0  0  0999 V2000     
   20.3480   18.8961   26.0771 N   0  3  0  0  0  0  0  0  0  0  0  0
   21.0124   18.2775   26.5688 H   0  0  0  0  0  0  0  0  0  0  0  0
   19.4926   18.8799   26.6537 H   0  0  0  0  0  0  0  0  0  0  0  0
   20.0605   18.3371   24.6941 C   0  0  0  0  0  0  0  0  0  0  0  0
   19.8245   17.2766   24.8134 H   0  0  0  0  0  0  0  0  0  0  0  0
   20.9770   18.4171   24.1046 H   0  0  0  0  0  0  0  0  0  0  0  0
   18.8969   19.0292   23.9531 C   0  0  0  0  0  0  0  0  0  0  0  0
   17.9967   18.9859   24.5802 H   0  0  0  0  0  0  0  0  0  0  0  0
   19.1204   20.0936   23.8115 H   0  0  0  0  0  0  0  0  0  0  0  0
   18.5858   18.3722   22.5852 C   0  0  0  0  0  0  0  0  0  0  0  0
   17.7530   18.9108   22.1122 H   0  0  0  0  0  0  0  0  0  0  0  0
   18.2247   17.3486   22.7559 H   0  0  0  0  0  0  0  0  0  0  0  0
   19.7823   18.3197   21.5997 C   0  0  0  0  0  0  0  0  0  0  0  0
   20.5813   17.6889   22.0121 H   0  0  0  0  0  0  0  0  0  0  0  0
   19.4499   17.8214   20.6785 H   0  0  0  0  0  0  0  0  0  0  0  0
   20.3516   19.7127   21.2405 C   0  0  0  0  0  0  0  0  0  0  0  0
   20.7603   20.1978   22.1371 H   0  0  0  0  0  0  0  0  0  0  0  0
   19.5443   20.3588   20.8682 H   0  0  0  0  0  0  0  0  0  0  0  0
   21.4632   19.6160   20.1739 C   0  0  0  0  0  0  0  0  0  0  0  0
   21.0824   19.1717   19.2451 H   0  0  0  0  0  0  0  0  0  0  0  0
   22.2993   19.0000   20.5299 H   0  0  0  0  0  0  0  0  0  0  0  0
   21.8573   20.6119   19.9334 H   0  0  0  0  0  0  0  0  0  0  0  0
   20.9198   20.3069   25.9933 C   0  0  0  0  0  0  0  0  0  0  0  0
   21.1481   20.6601   27.0013 H   0  0  0  0  0  0  0  0  0  0  0  0
   21.8323   20.2891   25.3934 H   0  0  0  0  0  0  0  0  0  0  0  0
   20.1847   20.9685   25.5307 H   0  0  0  0  0  0  0  0  0  0  0  0
  1  2  1  0  0  0  0
  1  3  1  0  0  0  0
  1  4  1  0  0  0  0
  4  5  1  0  0  0  0
  4  6  1  0  0  0  0
  4  7  1  0  0  0  0
  7  8  1  0  0  0  0
  7  9  1  0  0  0  0
  7 10  1  0  0  0  0
 10 11  1  0  0  0  0
 10 12  1  0  0  0  0
 10 13  1  0  0  0  0
 13 14  1  0  0  0  0
 13 15  1  0  0  0  0
 13 16  1  0  0  0  0
 16 17  1  0  0  0  0
 16 18  1  0  0  0  0
 16 19  1  0  0  0  0
 19 20  1  0  0  0  0
 19 21  1  0  0  0  0
 19 22  1  0  0  0  0
  1 23  1  0  0  0  0
 23 24  1  0  0  0  0
 23 25  1  0  0  0  0
 23 26  1  0  0  0  0
M  END
> <VM2 Rank>
50

> <Conf_Id>
1065

> <Probability>
0.75

> <Sum Probability>
81.71

> <Delta G>
1.345

> <G>
76.811

> <E>
44.141

> <-TS>
32.669

> <U+W>
22.679

> <U>
72.352

> <W>
-49.672

> <W(PB)>
-51.909

> <W(SA)>
2.237

> <Valence>
2.742

> <Coulomb>
69.271

> <VdW>
0.339

> <VdW6>
-7.703

> <VdW12>
8.042

> <Bond>
0.229

> <Angle>
0.954

> <Pdih>
1.560

> <Idih>
0.000

> <Tether>
0.000

$$$$
VeraChem MOL file


 26 25  0  0  0  0  0  0  0  0999 V2000     
   19.6019   18.8191   26.0508 N   0  3  0  0  0  0  0  0  0  0  0  0
   20.4004   18.9725   26.6860 H   0  0  0  0  0  0  0  0  0  0  0  0
   19.0443   18.0748   26.4990 H   0  0  0  0  0  0  0  0  0  0  0  0
   20.0930   18.3405   24.6952 C   0  0  0  0  0  0  0  0  0  0  0  0
   19.2228   18.2369   24.0425 H   0  0  0  0  0  0  0  0  0  0  0  0
   20.5307   17.3493   24.8380 H   0  0  0  0  0  0  0  0  0  0  0  0
   21.1405   19.2602   24.0326 C   0  0  0  0  0  0  0  0  0  0  0  0
   20.7155   20.2578   23.8680 H   0  0  0  0  0  0  0  0  0  0  0  0
   21.9845   19.3964   24.7215 H   0  0  0  0  0  0  0  0  0  0  0  0
   21.6738   18.6901   22.6946 C   0  0  0  0  0  0  0  0  0  0  0  0
   22.2227   17.7601   22.8976 H   0  0  0  0  0  0  0  0  0  0  0  0
   22.4107   19.3902   22.2772 H   0  0  0  0  0  0  0  0  0  0  0  0
   20.5850   18.4023   21.6281 C   0  0  0  0  0  0  0  0  0  0  0  0
   21.0756   17.9885   20.7362 H   0  0  0  0  0  0  0  0  0  0  0  0
   19.9041   17.6193   21.9881 H   0  0  0  0  0  0  0  0  0  0  0  0
   19.7710   19.6530   21.2197 C   0  0  0  0  0  0  0  0  0  0  0  0
   20.4542   20.4523   20.9000 H   0  0  0  0  0  0  0  0  0  0  0  0
   19.2104   20.0385   22.0818 H   0  0  0  0  0  0  0  0  0  0  0  0
   18.7798   19.3398   20.0785 C   0  0  0  0  0  0  0  0  0  0  0  0
   18.2093   20.2364   19.8036 H   0  0  0  0  0  0  0  0  0  0  0  0
   18.0636   18.5642   20.3796 H   0  0  0  0  0  0  0  0  0  0  0  0
   19.3072   18.9887   19.1820 H   0  0  0  0  0  0  0  0  0  0  0  0
   18.7629   20.0851   25.9175 C   0  0  0  0  0  0  0  0  0  0  0  0
   17.9173   19.8869   25.2553 H   0  0  0  0  0  0  0  0  0  0  0  0
   18.3976   20.3768   26.9047 H   0  0  0  0  0  0  0  0  0  0  0  0
   19.3789   20.8856   25.5032 H   0  0  0  0  0  0  0  0  0  0  0  0
  1  2  1  0  0  0  0
  1  3  1  0  0  0  0
  1  4  1  0  0  0  0
  4  5  1  0  0  0  0
  4  6  1  0  0  0  0
  4  7  1  0  0  0  0
  7  8  1  0  0  0  0
  7  9  1  0  0  0  0
  7 10  1  0  0  0  0
 10 11  1  0  0  0  0
 10 12  1  0  0  0  0
 10 13  1  0  0  0  0
 13 14  1  0  0  0  0
 13 15  1  0  0  0  0
 13 16  1  0  0  0  0
 16 17  1  0  0  0  0
 16 18  1  0  0  0  0
 16 19  1  0  0  0  0
 19 20  1  0  0  0  0
 19 21  1  0  0  0  0
 19 22  1  0  0  0  0
  1 23  1  0  0  0  0
 23 24  1  0  0  0  0
 23 25  1  0  0  0  0
 23 26  1  0  0  0  0
M  END
> <VM2 Rank>
51

> <Conf_Id>
1085

> <Probability>
0.74

> <Sum Probability>
82.45

> <Delta G>
1.347

> <G>
76.813

> <E>
44.144

> <-TS>
32.669

> <U+W>
22.682

> <U>
72.352

> <W>
-49.670

> <W(PB)>
-51.904

> <W(SA)>
2.234

> <Valence>
2.742

> <Coulomb>
69.270

> <VdW>
0.339

> <VdW6>
-7.702

> <VdW12>
8.042

> <Bond>
0.229

> <Angle>
0.954

> <Pdih>
1.560

> <Idih>
0.000

> <Tether>
0.000

$$$$
VeraChem MOL file


 26 25  0  0  0  0  0  0  0  0999 V2000     
   20.4591   19.1901   26.1791 N   0  3  0  0  0  0  0  0  0  0  0  0
   20.8168   19.6796   27.0148 H   0  0  0  0  0  0  0  0  0  0  0  0
   21.2655   18.6630   25.8125 H   0  0  0  0  0  0  0  0  0  0  0  0
   19.9908   20.2109   25.1534 C   0  0  0  0  0  0  0  0  0  0  0  0
   20.7982   20.9358   25.0222 H   0  0  0  0  0  0  0  0  0  0  0  0
   19.1335   20.7373   25.5806 H   0  0  0  0  0  0  0  0  0  0  0  0
   19.6054   19.6342   23.7733 C   0  0  0  0  0  0  0  0  0  0  0  0
   18.7641   18.9378   23.8826 H   0  0  0  0  0  0  0  0  0  0  0  0
   19.2426   20.4633   23.1535 H   0  0  0  0  0  0  0  0  0  0  0  0
   20.7901   18.9287   23.0663 C   0  0  0  0  0  0  0  0  0  0  0  0
   21.1691   18.1234   23.7093 H   0  0  0  0  0  0  0  0  0  0  0  0
   21.6197   19.6374   22.9363 H   0  0  0  0  0  0  0  0  0  0  0  0
   20.4149   18.3121   21.6959 C   0  0  0  0  0  0  0  0  0  0  0  0
   21.2714   17.7277   21.3321 H   0  0  0  0  0  0  0  0  0  0  0  0
   19.5895   17.5987   21.8264 H   0  0  0  0  0  0  0  0  0  0  0  0
   20.0336   19.3616   20.6248 C   0  0  0  0  0  0  0  0  0  0  0  0
   20.8362   20.1068   20.5328 H   0  0  0  0  0  0  0  0  0  0  0  0
   19.1287   19.9040   20.9289 H   0  0  0  0  0  0  0  0  0  0  0  0
   19.7845   18.7065   19.2494 C   0  0  0  0  0  0  0  0  0  0  0  0
   20.6827   18.1876   18.8900 H   0  0  0  0  0  0  0  0  0  0  0  0
   19.5123   19.4638   18.5028 H   0  0  0  0  0  0  0  0  0  0  0  0
   18.9662   17.9766   19.3024 H   0  0  0  0  0  0  0  0  0  0  0  0
   19.3297   18.2459   26.5748 C   0  0  0  0  0  0  0  0  0  0  0  0
   19.0022   17.6866   25.6962 H   0  0  0  0  0  0  0  0  0  0  0  0
   19.6937   17.5529   27.3366 H   0  0  0  0  0  0  0  0  0  0  0  0
   18.4977   18.8296   26.9746 H   0  0  0  0  0  0  0  0  0  0  0  0
  1  2  1  0  0  0  0
  1  3  1  0  0  0  0
  1  4  1  0  0  0  0
  4  5  1  0  0  0  0
  4  6  1  0  0  0  0
  4  7  1  0  0  0  0
  7  8  1  0  0  0  0
  7  9  1  0  0  0  0
  7 10  1  0  0  0  0
 10 11  1  0  0  0  0
 10 12  1  0  0  0  0
 10 13  1  0  0  0  0
 13 14  1  0  0  0  0
 13 15  1  0  0  0  0
 13 16  1  0  0  0  0
 16 17  1  0  0  0  0
 16 18  1  0  0  0  0
 16 19  1  0  0  0  0
 19 20  1  0  0  0  0
 19 21  1  0  0  0  0
 19 22  1  0  0  0  0
  1 23  1  0  0  0  0
 23 24  1  0  0  0  0
 23 25  1  0  0  0  0
 23 26  1  0  0  0  0
M  END
> <VM2 Rank>
52

> <Conf_Id>
1266

> <Probability>
0.74

> <Sum Probability>
83.19

> <Delta G>
1.351

> <G>
76.817

> <E>
44.268

> <-TS>
32.549

> <U+W>
22.806

> <U>
72.239

> <W>
-49.432

> <W(PB)>
-51.686

> <W(SA)>
2.253

> <Valence>
2.658

> <Coulomb>
69.025

> <VdW>
0.556

> <VdW6>
-7.358

> <VdW12>
7.914

> <Bond>
0.230

> <Angle>
0.883

> <Pdih>
1.546

> <Idih>
0.000

> <Tether>
0.000

$$$$
VeraChem MOL file


 26 25  0  0  0  0  0  0  0  0999 V2000     
   20.3334   18.5431   26.2746 N   0  3  0  0  0  0  0  0  0  0  0  0
   21.1970   18.1445   26.6762 H   0  0  0  0  0  0  0  0  0  0  0  0
   19.5786   17.9138   26.5888 H   0  0  0  0  0  0  0  0  0  0  0  0
   20.4268   18.5354   24.7581 C   0  0  0  0  0  0  0  0  0  0  0  0
   20.7461   17.5344   24.4569 H   0  0  0  0  0  0  0  0  0  0  0  0
   21.2073   19.2425   24.4676 H   0  0  0  0  0  0  0  0  0  0  0  0
   19.1077   18.8793   24.0340 C   0  0  0  0  0  0  0  0  0  0  0  0
   18.3178   18.2034   24.3873 H   0  0  0  0  0  0  0  0  0  0  0  0
   18.7902   19.8970   24.2954 H   0  0  0  0  0  0  0  0  0  0  0  0
   19.2249   18.7558   22.4966 C   0  0  0  0  0  0  0  0  0  0  0  0
   18.2358   18.9318   22.0518 H   0  0  0  0  0  0  0  0  0  0  0  0
   19.5039   17.7253   22.2394 H   0  0  0  0  0  0  0  0  0  0  0  0
   20.2437   19.7516   21.8862 C   0  0  0  0  0  0  0  0  0  0  0  0
   20.0083   20.7660   22.2368 H   0  0  0  0  0  0  0  0  0  0  0  0
   21.2559   19.5261   22.2480 H   0  0  0  0  0  0  0  0  0  0  0  0
   20.2466   19.7553   20.3383 C   0  0  0  0  0  0  0  0  0  0  0  0
   20.9161   20.5536   19.9886 H   0  0  0  0  0  0  0  0  0  0  0  0
   19.2447   20.0096   19.9650 H   0  0  0  0  0  0  0  0  0  0  0  0
   20.7059   18.4140   19.7224 C   0  0  0  0  0  0  0  0  0  0  0  0
   21.6947   18.1237   20.1004 H   0  0  0  0  0  0  0  0  0  0  0  0
   20.7756   18.4968   18.6300 H   0  0  0  0  0  0  0  0  0  0  0  0
   20.0004   17.6045   19.9468 H   0  0  0  0  0  0  0  0  0  0  0  0
   20.1190   19.9555   26.8068 C   0  0  0  0  0  0  0  0  0  0  0  0
   20.0935   19.9257   27.8984 H   0  0  0  0  0  0  0  0  0  0  0  0
   20.9414   20.5928   26.4746 H   0  0  0  0  0  0  0  0  0  0  0  0
   19.1719   20.3449   26.4283 H   0  0  0  0  0  0  0  0  0  0  0  0
  1  2  1  0  0  0  0
  1  3  1  0  0  0  0
  1  4  1  0  0  0  0
  4  5  1  0  0  0  0
  4  6  1  0  0  0  0
  4  7  1  0  0  0  0
  7  8  1  0  0  0  0
  7  9  1  0  0  0  0
  7 10  1  0  0  0  0
 10 11  1  0  0  0  0
 10 12  1  0  0  0  0
 10 13  1  0  0  0  0
 13 14  1  0  0  0  0
 13 15  1  0  0  0  0
 13 16  1  0  0  0  0
 16 17  1  0  0  0  0
 16 18  1  0  0  0  0
 16 19  1  0  0  0  0
 19 20  1  0  0  0  0
 19 21  1  0  0  0  0
 19 22  1  0  0  0  0
  1 23  1  0  0  0  0
 23 24  1  0  0  0  0
 23 25  1  0  0  0  0
 23 26  1  0  0  0  0
M  END
> <VM2 Rank>
53

> <Conf_Id>
1072

> <Probability>
0.72

> <Sum Probability>
83.91

> <Delta G>
1.366

> <G>
76.832

> <E>
44.288

> <-TS>
32.544

> <U+W>
22.826

> <U>
72.114

> <W>
-49.288

> <W(PB)>
-51.563

> <W(SA)>
2.275

> <Valence>
2.783

> <Coulomb>
68.782

> <VdW>
0.550

> <VdW6>
-7.241

> <VdW12>
7.791

> <Bond>
0.221

> <Angle>
0.803

> <Pdih>
1.759

> <Idih>
0.000

> <Tether>
0.000

$$$$
VeraChem MOL file


 26 25  0  0  0  0  0  0  0  0999 V2000     
   19.8194   18.3996   26.2069 N   0  3  0  0  0  0  0  0  0  0  0  0
   20.7687   18.0345   26.3804 H   0  0  0  0  0  0  0  0  0  0  0  0
   19.1840   17.6457   26.5133 H   0  0  0  0  0  0  0  0  0  0  0  0
   19.6198   18.6609   24.7233 C   0  0  0  0  0  0  0  0  0  0  0  0
   18.6236   19.0893   24.5879 H   0  0  0  0  0  0  0  0  0  0  0  0
   19.6437   17.6915   24.2200 H   0  0  0  0  0  0  0  0  0  0  0  0
   20.6797   19.5857   24.0873 C   0  0  0  0  0  0  0  0  0  0  0  0
   20.6598   20.5628   24.5867 H   0  0  0  0  0  0  0  0  0  0  0  0
   21.6812   19.1679   24.2549 H   0  0  0  0  0  0  0  0  0  0  0  0
   20.4518   19.7986   22.5720 C   0  0  0  0  0  0  0  0  0  0  0  0
   21.1855   20.5293   22.2046 H   0  0  0  0  0  0  0  0  0  0  0  0
   19.4613   20.2467   22.4178 H   0  0  0  0  0  0  0  0  0  0  0  0
   20.5788   18.4912   21.7494 C   0  0  0  0  0  0  0  0  0  0  0  0
   21.5318   18.0029   21.9958 H   0  0  0  0  0  0  0  0  0  0  0  0
   19.7864   17.7863   22.0347 H   0  0  0  0  0  0  0  0  0  0  0  0
   20.5262   18.7213   20.2196 C   0  0  0  0  0  0  0  0  0  0  0  0
   20.7235   17.7667   19.7121 H   0  0  0  0  0  0  0  0  0  0  0  0
   21.3344   19.4020   19.9177 H   0  0  0  0  0  0  0  0  0  0  0  0
   19.1692   19.2756   19.7288 C   0  0  0  0  0  0  0  0  0  0  0  0
   18.9810   20.2840   20.1177 H   0  0  0  0  0  0  0  0  0  0  0  0
   18.3410   18.6261   20.0407 H   0  0  0  0  0  0  0  0  0  0  0  0
   19.1530   19.3368   18.6329 H   0  0  0  0  0  0  0  0  0  0  0  0
   19.5631   19.6572   27.0296 C   0  0  0  0  0  0  0  0  0  0  0  0
   18.5470   20.0095   26.8392 H   0  0  0  0  0  0  0  0  0  0  0  0
   19.6784   19.4202   28.0896 H   0  0  0  0  0  0  0  0  0  0  0  0
   20.2822   20.4283   26.7461 H   0  0  0  0  0  0  0  0  0  0  0  0
  1  2  1  0  0  0  0
  1  3  1  0  0  0  0
  1  4  1  0  0  0  0
  4  5  1  0  0  0  0
  4  6  1  0  0  0  0
  4  7  1  0  0  0  0
  7  8  1  0  0  0  0
  7  9  1  0  0  0  0
  7 10  1  0  0  0  0
 10 11  1  0  0  0  0
 10 12  1  0  0  0  0
 10 13  1  0  0  0  0
 13 14  1  0  0  0  0
 13 15  1  0  0  0  0
 13 16  1  0  0  0  0
 16 17  1  0  0  0  0
 16 18  1  0  0  0  0
 16 19  1  0  0  0  0
 19 20  1  0  0  0  0
 19 21  1  0  0  0  0
 19 22  1  0  0  0  0
  1 23  1  0  0  0  0
 23 24  1  0  0  0  0
 23 25  1  0  0  0  0
 23 26  1  0  0  0  0
M  END
> <VM2 Rank>
54

> <Conf_Id>
1344

> <Probability>
0.66

> <Sum Probability>
84.57

> <Delta G>
1.415

> <G>
76.881

> <E>
44.332

> <-TS>
32.549

> <U+W>
22.870

> <U>
72.218

> <W>
-49.347

> <W(PB)>
-51.615

> <W(SA)>
2.268

> <Valence>
2.805

> <Coulomb>
68.813

> <VdW>
0.600

> <VdW6>
-7.202

> <VdW12>
7.801

> <Bond>
0.224

> <Angle>
0.821

> <Pdih>
1.760

> <Idih>
0.000

> <Tether>
0.000

$$$$
VeraChem MOL file


 26 25  0  0  0  0  0  0  0  0999 V2000     
   20.2093   18.4394   26.2207 N   0  3  0  0  0  0  0  0  0  0  0  0
   20.9609   17.8273   26.5761 H   0  0  0  0  0  0  0  0  0  0  0  0
   19.3437   17.8887   26.3298 H   0  0  0  0  0  0  0  0  0  0  0  0
   20.4553   18.7464   24.7529 C   0  0  0  0  0  0  0  0  0  0  0  0
   20.6632   17.7958   24.2560 H   0  0  0  0  0  0  0  0  0  0  0  0
   21.3513   19.3683   24.6845 H   0  0  0  0  0  0  0  0  0  0  0  0
   19.2775   19.4423   24.0376 C   0  0  0  0  0  0  0  0  0  0  0  0
   18.3719   18.8296   24.1377 H   0  0  0  0  0  0  0  0  0  0  0  0
   19.0644   20.3997   24.5302 H   0  0  0  0  0  0  0  0  0  0  0  0
   19.5631   19.7078   22.5406 C   0  0  0  0  0  0  0  0  0  0  0  0
   20.4510   20.3479   22.4529 H   0  0  0  0  0  0  0  0  0  0  0  0
   18.7245   20.2778   22.1175 H   0  0  0  0  0  0  0  0  0  0  0  0
   19.7608   18.4076   21.7204 C   0  0  0  0  0  0  0  0  0  0  0  0
   20.6572   17.8752   22.0655 H   0  0  0  0  0  0  0  0  0  0  0  0
   18.9112   17.7352   21.9028 H   0  0  0  0  0  0  0  0  0  0  0  0
   19.8730   18.6546   20.1964 C   0  0  0  0  0  0  0  0  0  0  0  0
   18.9672   19.1603   19.8338 H   0  0  0  0  0  0  0  0  0  0  0  0
   19.9086   17.6835   19.6832 H   0  0  0  0  0  0  0  0  0  0  0  0
   21.1211   19.4750   19.7981 C   0  0  0  0  0  0  0  0  0  0  0  0
   21.2016   19.5460   18.7057 H   0  0  0  0  0  0  0  0  0  0  0  0
   22.0394   19.0039   20.1720 H   0  0  0  0  0  0  0  0  0  0  0  0
   21.0741   20.4978   20.1920 H   0  0  0  0  0  0  0  0  0  0  0  0
   20.1478   19.7169   27.0503 C   0  0  0  0  0  0  0  0  0  0  0  0
   21.0826   20.2687   26.9292 H   0  0  0  0  0  0  0  0  0  0  0  0
   19.3094   20.3288   26.7116 H   0  0  0  0  0  0  0  0  0  0  0  0
   20.0087   19.4538   28.1013 H   0  0  0  0  0  0  0  0  0  0  0  0
  1  2  1  0  0  0  0
  1  3  1  0  0  0  0
  1  4  1  0  0  0  0
  4  5  1  0  0  0  0
  4  6  1  0  0  0  0
  4  7  1  0  0  0  0
  7  8  1  0  0  0  0
  7  9  1  0  0  0  0
  7 10  1  0  0  0  0
 10 11  1  0  0  0  0
 10 12  1  0  0  0  0
 10 13  1  0  0  0  0
 13 14  1  0  0  0  0
 13 15  1  0  0  0  0
 13 16  1  0  0  0  0
 16 17  1  0  0  0  0
 16 18  1  0  0  0  0
 16 19  1  0  0  0  0
 19 20  1  0  0  0  0
 19 21  1  0  0  0  0
 19 22  1  0  0  0  0
  1 23  1  0  0  0  0
 23 24  1  0  0  0  0
 23 25  1  0  0  0  0
 23 26  1  0  0  0  0
M  END
> <VM2 Rank>
55

> <Conf_Id>
837

> <Probability>
0.64

> <Sum Probability>
85.21

> <Delta G>
1.438

> <G>
76.904

> <E>
44.355

> <-TS>
32.549

> <U+W>
22.893

> <U>
72.218

> <W>
-49.325

> <W(PB)>
-51.600

> <W(SA)>
2.275

> <Valence>
2.805

> <Coulomb>
68.813

> <VdW>
0.600

> <VdW6>
-7.202

> <VdW12>
7.802

> <Bond>
0.224

> <Angle>
0.821

> <Pdih>
1.760

> <Idih>
0.000

> <Tether>
0.000

$$$$
VeraChem MOL file


 26 25  0  0  0  0  0  0  0  0999 V2000     
   20.3600   19.2926   26.3929 N   0  3  0  0  0  0  0  0  0  0  0  0
   20.7737   20.0850   26.9094 H   0  0  0  0  0  0  0  0  0  0  0  0
   20.8665   18.4603   26.7321 H   0  0  0  0  0  0  0  0  0  0  0  0
   20.5934   19.4787   24.9031 C   0  0  0  0  0  0  0  0  0  0  0  0
   21.6523   19.7130   24.7667 H   0  0  0  0  0  0  0  0  0  0  0  0
   20.0097   20.3436   24.5794 H   0  0  0  0  0  0  0  0  0  0  0  0
   20.2374   18.2484   24.0413 C   0  0  0  0  0  0  0  0  0  0  0  0
   20.7774   17.3740   24.4277 H   0  0  0  0  0  0  0  0  0  0  0  0
   19.1673   18.0222   24.1329 H   0  0  0  0  0  0  0  0  0  0  0  0
   20.5966   18.4402   22.5488 C   0  0  0  0  0  0  0  0  0  0  0  0
   20.4205   17.4899   22.0283 H   0  0  0  0  0  0  0  0  0  0  0  0
   21.6706   18.6526   22.4546 H   0  0  0  0  0  0  0  0  0  0  0  0
   19.7781   19.5664   21.8672 C   0  0  0  0  0  0  0  0  0  0  0  0
   18.7051   19.3425   21.9434 H   0  0  0  0  0  0  0  0  0  0  0  0
   19.9350   20.5111   22.4042 H   0  0  0  0  0  0  0  0  0  0  0  0
   20.1542   19.7892   20.3821 C   0  0  0  0  0  0  0  0  0  0  0  0
   21.2246   20.0250   20.3008 H   0  0  0  0  0  0  0  0  0  0  0  0
   19.6166   20.6733   20.0119 H   0  0  0  0  0  0  0  0  0  0  0  0
   19.8159   18.5859   19.4724 C   0  0  0  0  0  0  0  0  0  0  0  0
   20.4233   17.7072   19.7219 H   0  0  0  0  0  0  0  0  0  0  0  0
   20.0114   18.8329   18.4209 H   0  0  0  0  0  0  0  0  0  0  0  0
   18.7573   18.3093   19.5604 H   0  0  0  0  0  0  0  0  0  0  0  0
   18.8723   19.1886   26.7093 C   0  0  0  0  0  0  0  0  0  0  0  0
   18.7428   19.0921   27.7895 H   0  0  0  0  0  0  0  0  0  0  0  0
   18.3666   20.0900   26.3565 H   0  0  0  0  0  0  0  0  0  0  0  0
   18.4567   18.3109   26.2102 H   0  0  0  0  0  0  0  0  0  0  0  0
  1  2  1  0  0  0  0
  1  3  1  0  0  0  0
  1  4  1  0  0  0  0
  4  5  1  0  0  0  0
  4  6  1  0  0  0  0
  4  7  1  0  0  0  0
  7  8  1  0  0  0  0
  7  9  1  0  0  0  0
  7 10  1  0  0  0  0
 10 11  1  0  0  0  0
 10 12  1  0  0  0  0
 10 13  1  0  0  0  0
 13 14  1  0  0  0  0
 13 15  1  0  0  0  0
 13 16  1  0  0  0  0
 16 17  1  0  0  0  0
 16 18  1  0  0  0  0
 16 19  1  0  0  0  0
 19 20  1  0  0  0  0
 19 21  1  0  0  0  0
 19 22  1  0  0  0  0
  1 23  1  0  0  0  0
 23 24  1  0  0  0  0
 23 25  1  0  0  0  0
 23 26  1  0  0  0  0
M  END
> <VM2 Rank>
56

> <Conf_Id>
264

> <Probability>
0.58

> <Sum Probability>
85.79

> <Delta G>
1.493

> <G>
76.959

> <E>
44.445

> <-TS>
32.514

> <U+W>
22.984

> <U>
72.180

> <W>
-49.197

> <W(PB)>
-51.484

> <W(SA)>
2.287

> <Valence>
2.842

> <Coulomb>
68.728

> <VdW>
0.611

> <VdW6>
-7.185

> <VdW12>
7.795

> <Bond>
0.227

> <Angle>
0.860

> <Pdih>
1.755

> <Idih>
0.000

> <Tether>
0.000

$$$$
VeraChem MOL file


 26 25  0  0  0  0  0  0  0  0999 V2000     
   20.0322   19.0273   26.2948 N   0  3  0  0  0  0  0  0  0  0  0  0
   20.8623   18.4313   26.4369 H   0  0  0  0  0  0  0  0  0  0  0  0
   19.4297   18.8440   27.1129 H   0  0  0  0  0  0  0  0  0  0  0  0
   19.3034   18.6189   25.0254 C   0  0  0  0  0  0  0  0  0  0  0  0
   18.4576   19.2976   24.8897 H   0  0  0  0  0  0  0  0  0  0  0  0
   18.9082   17.6128   25.1876 H   0  0  0  0  0  0  0  0  0  0  0  0
   20.1804   18.6139   23.7569 C   0  0  0  0  0  0  0  0  0  0  0  0
   20.5589   19.6266   23.5728 H   0  0  0  0  0  0  0  0  0  0  0  0
   21.0519   17.9661   23.9189 H   0  0  0  0  0  0  0  0  0  0  0  0
   19.3851   18.1186   22.5262 C   0  0  0  0  0  0  0  0  0  0  0  0
   18.5345   18.7879   22.3402 H   0  0  0  0  0  0  0  0  0  0  0  0
   18.9505   17.1355   22.7543 H   0  0  0  0  0  0  0  0  0  0  0  0
   20.2455   17.9862   21.2427 C   0  0  0  0  0  0  0  0  0  0  0  0
   21.0225   17.2276   21.4101 H   0  0  0  0  0  0  0  0  0  0  0  0
   19.6133   17.5943   20.4340 H   0  0  0  0  0  0  0  0  0  0  0  0
   20.9217   19.2950   20.7597 C   0  0  0  0  0  0  0  0  0  0  0  0
   21.4968   19.0756   19.8493 H   0  0  0  0  0  0  0  0  0  0  0  0
   21.6551   19.6398   21.5009 H   0  0  0  0  0  0  0  0  0  0  0  0
   19.9178   20.4292   20.4523 C   0  0  0  0  0  0  0  0  0  0  0  0
   19.1620   20.1015   19.7267 H   0  0  0  0  0  0  0  0  0  0  0  0
   20.4371   21.2977   20.0269 H   0  0  0  0  0  0  0  0  0  0  0  0
   19.4008   20.7659   21.3595 H   0  0  0  0  0  0  0  0  0  0  0  0
   20.4218   20.5008   26.2591 C   0  0  0  0  0  0  0  0  0  0  0  0
   20.9077   20.7646   27.2011 H   0  0  0  0  0  0  0  0  0  0  0  0
   21.1111   20.6731   25.4301 H   0  0  0  0  0  0  0  0  0  0  0  0
   19.5227   21.1064   26.1260 H   0  0  0  0  0  0  0  0  0  0  0  0
  1  2  1  0  0  0  0
  1  3  1  0  0  0  0
  1  4  1  0  0  0  0
  4  5  1  0  0  0  0
  4  6  1  0  0  0  0
  4  7  1  0  0  0  0
  7  8  1  0  0  0  0
  7  9  1  0  0  0  0
  7 10  1  0  0  0  0
 10 11  1  0  0  0  0
 10 12  1  0  0  0  0
 10 13  1  0  0  0  0
 13 14  1  0  0  0  0
 13 15  1  0  0  0  0
 13 16  1  0  0  0  0
 16 17  1  0  0  0  0
 16 18  1  0  0  0  0
 16 19  1  0  0  0  0
 19 20  1  0  0  0  0
 19 21  1  0  0  0  0
 19 22  1  0  0  0  0
  1 23  1  0  0  0  0
 23 24  1  0  0  0  0
 23 25  1  0  0  0  0
 23 26  1  0  0  0  0
M  END
> <VM2 Rank>
57

> <Conf_Id>
1114

> <Probability>
0.55

> <Sum Probability>
86.34

> <Delta G>
1.528

> <G>
76.994

> <E>
44.228

> <-TS>
32.766

> <U+W>
22.766

> <U>
72.216

> <W>
-49.450

> <W(PB)>
-51.685

> <W(SA)>
2.235

> <Valence>
2.957

> <Coulomb>
68.762

> <VdW>
0.497

> <VdW6>
-7.593

> <VdW12>
8.090

> <Bond>
0.242

> <Angle>
1.122

> <Pdih>
1.593

> <Idih>
0.000

> <Tether>
0.000

$$$$
VeraChem MOL file


 26 25  0  0  0  0  0  0  0  0999 V2000     
   19.8705   18.2986   26.1261 N   0  3  0  0  0  0  0  0  0  0  0  0
   20.4402   17.8646   26.8698 H   0  0  0  0  0  0  0  0  0  0  0  0
   19.2477   17.5459   25.7946 H   0  0  0  0  0  0  0  0  0  0  0  0
   20.7766   18.7657   24.9992 C   0  0  0  0  0  0  0  0  0  0  0  0
   21.4387   17.9330   24.7487 H   0  0  0  0  0  0  0  0  0  0  0  0
   21.3915   19.5852   25.3795 H   0  0  0  0  0  0  0  0  0  0  0  0
   20.0337   19.2153   23.7247 C   0  0  0  0  0  0  0  0  0  0  0  0
   19.3810   18.4008   23.3865 H   0  0  0  0  0  0  0  0  0  0  0  0
   19.3892   20.0737   23.9536 H   0  0  0  0  0  0  0  0  0  0  0  0
   21.0261   19.6008   22.6027 C   0  0  0  0  0  0  0  0  0  0  0  0
   21.6444   18.7323   22.3389 H   0  0  0  0  0  0  0  0  0  0  0  0
   21.7214   20.3599   22.9872 H   0  0  0  0  0  0  0  0  0  0  0  0
   20.3387   20.1668   21.3330 C   0  0  0  0  0  0  0  0  0  0  0  0
   19.8184   21.0988   21.5938 H   0  0  0  0  0  0  0  0  0  0  0  0
   21.1149   20.4496   20.6086 H   0  0  0  0  0  0  0  0  0  0  0  0
   19.3332   19.2107   20.6416 C   0  0  0  0  0  0  0  0  0  0  0  0
   18.9145   19.7203   19.7625 H   0  0  0  0  0  0  0  0  0  0  0  0
   18.4813   19.0104   21.3052 H   0  0  0  0  0  0  0  0  0  0  0  0
   19.9662   17.8757   20.1876 C   0  0  0  0  0  0  0  0  0  0  0  0
   20.8329   18.0509   19.5372 H   0  0  0  0  0  0  0  0  0  0  0  0
   19.2390   17.2773   19.6239 H   0  0  0  0  0  0  0  0  0  0  0  0
   20.2949   17.2743   21.0443 H   0  0  0  0  0  0  0  0  0  0  0  0
   19.0631   19.4564   26.7021 C   0  0  0  0  0  0  0  0  0  0  0  0
   18.4540   19.0894   27.5312 H   0  0  0  0  0  0  0  0  0  0  0  0
   19.7479   20.2277   27.0611 H   0  0  0  0  0  0  0  0  0  0  0  0
   18.4155   19.8678   25.9254 H   0  0  0  0  0  0  0  0  0  0  0  0
  1  2  1  0  0  0  0
  1  3  1  0  0  0  0
  1  4  1  0  0  0  0
  4  5  1  0  0  0  0
  4  6  1  0  0  0  0
  4  7  1  0  0  0  0
  7  8  1  0  0  0  0
  7  9  1  0  0  0  0
  7 10  1  0  0  0  0
 10 11  1  0  0  0  0
 10 12  1  0  0  0  0
 10 13  1  0  0  0  0
 13 14  1  0  0  0  0
 13 15  1  0  0  0  0
 13 16  1  0  0  0  0
 16 17  1  0  0  0  0
 16 18  1  0  0  0  0
 16 19  1  0  0  0  0
 19 20  1  0  0  0  0
 19 21  1  0  0  0  0
 19 22  1  0  0  0  0
  1 23  1  0  0  0  0
 23 24  1  0  0  0  0
 23 25  1  0  0  0  0
 23 26  1  0  0  0  0
M  END
> <VM2 Rank>
58

> <Conf_Id>
1263

> <Probability>
0.54

> <Sum Probability>
86.88

> <Delta G>
1.540

> <G>
77.006

> <E>
44.245

> <-TS>
32.760

> <U+W>
22.784

> <U>
72.256

> <W>
-49.473

> <W(PB)>
-51.710

> <W(SA)>
2.238

> <Valence>
2.959

> <Coulomb>
68.783

> <VdW>
0.514

> <VdW6>
-7.552

> <VdW12>
8.066

> <Bond>
0.240

> <Angle>
1.124

> <Pdih>
1.594

> <Idih>
0.000

> <Tether>
0.000

$$$$
VeraChem MOL file


 26 25  0  0  0  0  0  0  0  0999 V2000     
   19.8683   19.0103   26.2889 N   0  3  0  0  0  0  0  0  0  0  0  0
   20.4367   18.9482   27.1485 H   0  0  0  0  0  0  0  0  0  0  0  0
   19.1700   18.2560   26.3767 H   0  0  0  0  0  0  0  0  0  0  0  0
   20.7525   18.7690   25.0768 C   0  0  0  0  0  0  0  0  0  0  0  0
   21.3330   17.8641   25.2735 H   0  0  0  0  0  0  0  0  0  0  0  0
   21.4488   19.6075   24.9958 H   0  0  0  0  0  0  0  0  0  0  0  0
   19.9863   18.5938   23.7500 C   0  0  0  0  0  0  0  0  0  0  0  0
   19.2568   17.7800   23.8551 H   0  0  0  0  0  0  0  0  0  0  0  0
   19.4221   19.5088   23.5325 H   0  0  0  0  0  0  0  0  0  0  0  0
   20.9504   18.2810   22.5816 C   0  0  0  0  0  0  0  0  0  0  0  0
   21.5603   17.4062   22.8467 H   0  0  0  0  0  0  0  0  0  0  0  0
   21.6566   19.1118   22.4507 H   0  0  0  0  0  0  0  0  0  0  0  0
   20.2275   17.9843   21.2420 C   0  0  0  0  0  0  0  0  0  0  0  0
   20.9817   17.7364   20.4824 H   0  0  0  0  0  0  0  0  0  0  0  0
   19.6129   17.0812   21.3600 H   0  0  0  0  0  0  0  0  0  0  0  0
   19.3326   19.1300   20.7034 C   0  0  0  0  0  0  0  0  0  0  0  0
   18.4940   19.3115   21.3889 H   0  0  0  0  0  0  0  0  0  0  0  0
   18.8800   18.8040   19.7565 H   0  0  0  0  0  0  0  0  0  0  0  0
   20.1015   20.4484   20.4590 C   0  0  0  0  0  0  0  0  0  0  0  0
   20.4735   20.8773   21.3978 H   0  0  0  0  0  0  0  0  0  0  0  0
   19.4461   21.1949   19.9921 H   0  0  0  0  0  0  0  0  0  0  0  0
   20.9573   20.2881   19.7906 H   0  0  0  0  0  0  0  0  0  0  0  0
   19.1889   20.3731   26.2153 C   0  0  0  0  0  0  0  0  0  0  0  0
   18.5944   20.5249   27.1190 H   0  0  0  0  0  0  0  0  0  0  0  0
   19.9520   21.1509   26.1412 H   0  0  0  0  0  0  0  0  0  0  0  0
   18.5387   20.4067   25.3389 H   0  0  0  0  0  0  0  0  0  0  0  0
  1  2  1  0  0  0  0
  1  3  1  0  0  0  0
  1  4  1  0  0  0  0
  4  5  1  0  0  0  0
  4  6  1  0  0  0  0
  4  7  1  0  0  0  0
  7  8  1  0  0  0  0
  7  9  1  0  0  0  0
  7 10  1  0  0  0  0
 10 11  1  0  0  0  0
 10 12  1  0  0  0  0
 10 13  1  0  0  0  0
 13 14  1  0  0  0  0
 13 15  1  0  0  0  0
 13 16  1  0  0  0  0
 16 17  1  0  0  0  0
 16 18  1  0  0  0  0
 16 19  1  0  0  0  0
 19 20  1  0  0  0  0
 19 21  1  0  0  0  0
 19 22  1  0  0  0  0
  1 23  1  0  0  0  0
 23 24  1  0  0  0  0
 23 25  1  0  0  0  0
 23 26  1  0  0  0  0
M  END
> <VM2 Rank>
59

> <Conf_Id>
750

> <Probability>
0.52

> <Sum Probability>
87.40

> <Delta G>
1.555

> <G>
77.021

> <E>
44.256

> <-TS>
32.766

> <U+W>
22.794

> <U>
72.216

> <W>
-49.422

> <W(PB)>
-51.677

> <W(SA)>
2.255

> <Valence>
2.957

> <Coulomb>
68.763

> <VdW>
0.497

> <VdW6>
-7.594

> <VdW12>
8.090

> <Bond>
0.241

> <Angle>
1.122

> <Pdih>
1.593

> <Idih>
0.000

> <Tether>
0.000

$$$$
VeraChem MOL file


 26 25  0  0  0  0  0  0  0  0999 V2000     
   19.8384   18.1141   25.7826 N   0  3  0  0  0  0  0  0  0  0  0  0
   20.4097   17.3036   26.0698 H   0  0  0  0  0  0  0  0  0  0  0  0
   18.9304   17.7137   25.5010 H   0  0  0  0  0  0  0  0  0  0  0  0
   20.4969   18.8069   24.6012 C   0  0  0  0  0  0  0  0  0  0  0  0
   20.7447   18.0324   23.8714 H   0  0  0  0  0  0  0  0  0  0  0  0
   21.4301   19.2554   24.9508 H   0  0  0  0  0  0  0  0  0  0  0  0
   19.6224   19.8797   23.9181 C   0  0  0  0  0  0  0  0  0  0  0  0
   18.6689   19.4351   23.6063 H   0  0  0  0  0  0  0  0  0  0  0  0
   19.3718   20.6636   24.6442 H   0  0  0  0  0  0  0  0  0  0  0  0
   20.3231   20.5393   22.7039 C   0  0  0  0  0  0  0  0  0  0  0  0
   21.2033   21.0927   23.0595 H   0  0  0  0  0  0  0  0  0  0  0  0
   19.6499   21.2911   22.2694 H   0  0  0  0  0  0  0  0  0  0  0  0
   20.7708   19.5555   21.5915 C   0  0  0  0  0  0  0  0  0  0  0  0
   21.2694   20.1325   20.8004 H   0  0  0  0  0  0  0  0  0  0  0  0
   21.5290   18.8642   21.9831 H   0  0  0  0  0  0  0  0  0  0  0  0
   19.6047   18.7524   20.9679 C   0  0  0  0  0  0  0  0  0  0  0  0
   18.8265   19.4427   20.6135 H   0  0  0  0  0  0  0  0  0  0  0  0
   19.1389   18.1095   21.7266 H   0  0  0  0  0  0  0  0  0  0  0  0
   20.0830   17.8732   19.7928 C   0  0  0  0  0  0  0  0  0  0  0  0
   19.2445   17.3089   19.3645 H   0  0  0  0  0  0  0  0  0  0  0  0
   20.8411   17.1511   20.1231 H   0  0  0  0  0  0  0  0  0  0  0  0
   20.5196   18.4856   18.9930 H   0  0  0  0  0  0  0  0  0  0  0  0
   19.6687   19.0688   26.9590 C   0  0  0  0  0  0  0  0  0  0  0  0
   19.2291   18.5260   27.7988 H   0  0  0  0  0  0  0  0  0  0  0  0
   20.6464   19.4622   27.2458 H   0  0  0  0  0  0  0  0  0  0  0  0
   19.0098   19.8891   26.6676 H   0  0  0  0  0  0  0  0  0  0  0  0
  1  2  1  0  0  0  0
  1  3  1  0  0  0  0
  1  4  1  0  0  0  0
  4  5  1  0  0  0  0
  4  6  1  0  0  0  0
  4  7  1  0  0  0  0
  7  8  1  0  0  0  0
  7  9  1  0  0  0  0
  7 10  1  0  0  0  0
 10 11  1  0  0  0  0
 10 12  1  0  0  0  0
 10 13  1  0  0  0  0
 13 14  1  0  0  0  0
 13 15  1  0  0  0  0
 13 16  1  0  0  0  0
 16 17  1  0  0  0  0
 16 18  1  0  0  0  0
 16 19  1  0  0  0  0
 19 20  1  0  0  0  0
 19 21  1  0  0  0  0
 19 22  1  0  0  0  0
  1 23  1  0  0  0  0
 23 24  1  0  0  0  0
 23 25  1  0  0  0  0
 23 26  1  0  0  0  0
M  END
> <VM2 Rank>
60

> <Conf_Id>
1259

> <Probability>
0.52

> <Sum Probability>
87.93

> <Delta G>
1.557

> <G>
77.023

> <E>
44.351

> <-TS>
32.672

> <U+W>
22.889

> <U>
72.548

> <W>
-49.660

> <W(PB)>
-51.921

> <W(SA)>
2.262

> <Valence>
2.777

> <Coulomb>
69.321

> <VdW>
0.450

> <VdW6>
-7.543

> <VdW12>
7.993

> <Bond>
0.232

> <Angle>
0.993

> <Pdih>
1.552

> <Idih>
0.000

> <Tether>
0.000

$$$$
VeraChem MOL file


 26 25  0  0  0  0  0  0  0  0999 V2000     
   20.1849   18.3306   26.1372 N   0  3  0  0  0  0  0  0  0  0  0  0
   20.9682   17.7212   25.8554 H   0  0  0  0  0  0  0  0  0  0  0  0
   19.6637   17.7854   26.8422 H   0  0  0  0  0  0  0  0  0  0  0  0
   19.2844   18.6137   24.9463 C   0  0  0  0  0  0  0  0  0  0  0  0
   18.4919   19.2897   25.2768 H   0  0  0  0  0  0  0  0  0  0  0  0
   18.8229   17.6664   24.6559 H   0  0  0  0  0  0  0  0  0  0  0  0
   20.0089   19.2129   23.7238 C   0  0  0  0  0  0  0  0  0  0  0  0
   20.4495   20.1819   23.9912 H   0  0  0  0  0  0  0  0  0  0  0  0
   20.8344   18.5490   23.4380 H   0  0  0  0  0  0  0  0  0  0  0  0
   19.0403   19.3984   22.5323 C   0  0  0  0  0  0  0  0  0  0  0  0
   18.1811   19.9991   22.8617 H   0  0  0  0  0  0  0  0  0  0  0  0
   18.6297   18.4251   22.2321 H   0  0  0  0  0  0  0  0  0  0  0  0
   19.6867   20.1004   21.3098 C   0  0  0  0  0  0  0  0  0  0  0  0
   18.9221   20.2260   20.5308 H   0  0  0  0  0  0  0  0  0  0  0  0
   19.9889   21.1162   21.5997 H   0  0  0  0  0  0  0  0  0  0  0  0
   20.9102   19.3714   20.6974 C   0  0  0  0  0  0  0  0  0  0  0  0
   21.7363   19.3424   21.4205 H   0  0  0  0  0  0  0  0  0  0  0  0
   21.2780   19.9611   19.8461 H   0  0  0  0  0  0  0  0  0  0  0  0
   20.5926   17.9395   20.2100 C   0  0  0  0  0  0  0  0  0  0  0  0
   19.7561   17.9410   19.4992 H   0  0  0  0  0  0  0  0  0  0  0  0
   20.3327   17.2782   21.0459 H   0  0  0  0  0  0  0  0  0  0  0  0
   21.4632   17.5039   19.7029 H   0  0  0  0  0  0  0  0  0  0  0  0
   20.7000   19.6232   26.7602 C   0  0  0  0  0  0  0  0  0  0  0  0
   21.3110   19.3805   27.6325 H   0  0  0  0  0  0  0  0  0  0  0  0
   21.3043   20.1622   26.0278 H   0  0  0  0  0  0  0  0  0  0  0  0
   19.8504   20.2381   27.0648 H   0  0  0  0  0  0  0  0  0  0  0  0
  1  2  1  0  0  0  0
  1  3  1  0  0  0  0
  1  4  1  0  0  0  0
  4  5  1  0  0  0  0
  4  6  1  0  0  0  0
  4  7  1  0  0  0  0
  7  8  1  0  0  0  0
  7  9  1  0  0  0  0
  7 10  1  0  0  0  0
 10 11  1  0  0  0  0
 10 12  1  0  0  0  0
 10 13  1  0  0  0  0
 13 14  1  0  0  0  0
 13 15  1  0  0  0  0
 13 16  1  0  0  0  0
 16 17  1  0  0  0  0
 16 18  1  0  0  0  0
 16 19  1  0  0  0  0
 19 20  1  0  0  0  0
 19 21  1  0  0  0  0
 19 22  1  0  0  0  0
  1 23  1  0  0  0  0
 23 24  1  0  0  0  0
 23 25  1  0  0  0  0
 23 26  1  0  0  0  0
M  END
> <VM2 Rank>
61

> <Conf_Id>
809

> <Probability>
0.51

> <Sum Probability>
88.44

> <Delta G>
1.568

> <G>
77.034

> <E>
44.274

> <-TS>
32.761

> <U+W>
22.812

> <U>
72.256

> <W>
-49.444

> <W(PB)>
-51.705

> <W(SA)>
2.261

> <Valence>
2.959

> <Coulomb>
68.784

> <VdW>
0.514

> <VdW6>
-7.552

> <VdW12>
8.066

> <Bond>
0.240

> <Angle>
1.124

> <Pdih>
1.594

> <Idih>
0.000

> <Tether>
0.000

$$$$
VeraChem MOL file


 26 25  0  0  0  0  0  0  0  0999 V2000     
   20.5621   18.8382   26.3067 N   0  3  0  0  0  0  0  0  0  0  0  0
   21.4303   19.1545   26.7673 H   0  0  0  0  0  0  0  0  0  0  0  0
   20.6144   17.8079   26.3192 H   0  0  0  0  0  0  0  0  0  0  0  0
   20.5329   19.3456   24.8746 C   0  0  0  0  0  0  0  0  0  0  0  0
   21.5030   19.1099   24.4309 H   0  0  0  0  0  0  0  0  0  0  0  0
   20.4287   20.4331   24.9049 H   0  0  0  0  0  0  0  0  0  0  0  0
   19.4156   18.7353   24.0013 C   0  0  0  0  0  0  0  0  0  0  0  0
   19.5062   17.6410   23.9977 H   0  0  0  0  0  0  0  0  0  0  0  0
   18.4390   18.9674   24.4451 H   0  0  0  0  0  0  0  0  0  0  0  0
   19.4353   19.2632   22.5470 C   0  0  0  0  0  0  0  0  0  0  0  0
   19.3389   20.3578   22.5536 H   0  0  0  0  0  0  0  0  0  0  0  0
   18.5479   18.8759   22.0298 H   0  0  0  0  0  0  0  0  0  0  0  0
   20.7110   18.8542   21.7670 C   0  0  0  0  0  0  0  0  0  0  0  0
   21.5996   19.2230   22.2959 H   0  0  0  0  0  0  0  0  0  0  0  0
   20.7968   17.7590   21.7451 H   0  0  0  0  0  0  0  0  0  0  0  0
   20.7510   19.4036   20.3201 C   0  0  0  0  0  0  0  0  0  0  0  0
   21.7315   19.1696   19.8821 H   0  0  0  0  0  0  0  0  0  0  0  0
   20.6763   20.4999   20.3363 H   0  0  0  0  0  0  0  0  0  0  0  0
   19.6481   18.8202   19.4074 C   0  0  0  0  0  0  0  0  0  0  0  0
   19.6806   17.7229   19.4001 H   0  0  0  0  0  0  0  0  0  0  0  0
   19.7822   19.1662   18.3743 H   0  0  0  0  0  0  0  0  0  0  0  0
   18.6479   19.1329   19.7313 H   0  0  0  0  0  0  0  0  0  0  0  0
   19.3519   19.3298   27.0928 C   0  0  0  0  0  0  0  0  0  0  0  0
   19.4288   18.9775   28.1239 H   0  0  0  0  0  0  0  0  0  0  0  0
   19.3331   20.4217   27.0769 H   0  0  0  0  0  0  0  0  0  0  0  0
   18.4405   18.9364   26.6382 H   0  0  0  0  0  0  0  0  0  0  0  0
  1  2  1  0  0  0  0
  1  3  1  0  0  0  0
  1  4  1  0  0  0  0
  4  5  1  0  0  0  0
  4  6  1  0  0  0  0
  4  7  1  0  0  0  0
  7  8  1  0  0  0  0
  7  9  1  0  0  0  0
  7 10  1  0  0  0  0
 10 11  1  0  0  0  0
 10 12  1  0  0  0  0
 10 13  1  0  0  0  0
 13 14  1  0  0  0  0
 13 15  1  0  0  0  0
 13 16  1  0  0  0  0
 16 17  1  0  0  0  0
 16 18  1  0  0  0  0
 16 19  1  0  0  0  0
 19 20  1  0  0  0  0
 19 21  1  0  0  0  0
 19 22  1  0  0  0  0
  1 23  1  0  0  0  0
 23 24  1  0  0  0  0
 23 25  1  0  0  0  0
 23 26  1  0  0  0  0
M  END
> <VM2 Rank>
62

> <Conf_Id>
1316

> <Probability>
0.51

> <Sum Probability>
88.95

> <Delta G>
1.569

> <G>
77.035

> <E>
44.525

> <-TS>
32.510

> <U+W>
23.064

> <U>
72.298

> <W>
-49.235

> <W(PB)>
-51.502

> <W(SA)>
2.268

> <Valence>
2.869

> <Coulomb>
68.765

> <VdW>
0.665

> <VdW6>
-7.141

> <VdW12>
7.806

> <Bond>
0.230

> <Angle>
0.882

> <Pdih>
1.756

> <Idih>
0.000

> <Tether>
0.000

$$$$
VeraChem MOL file


 26 25  0  0  0  0  0  0  0  0999 V2000     
   19.3880   18.7181   26.2651 N   0  3  0  0  0  0  0  0  0  0  0  0
   19.5443   17.6984   26.2812 H   0  0  0  0  0  0  0  0  0  0  0  0
   18.4438   18.8490   26.6615 H   0  0  0  0  0  0  0  0  0  0  0  0
   19.4143   19.2313   24.8350 C   0  0  0  0  0  0  0  0  0  0  0  0
   19.2942   20.3171   24.8648 H   0  0  0  0  0  0  0  0  0  0  0  0
   18.5454   18.8075   24.3261 H   0  0  0  0  0  0  0  0  0  0  0  0
   20.6903   18.8657   24.0465 C   0  0  0  0  0  0  0  0  0  0  0  0
   21.5663   19.2873   24.5559 H   0  0  0  0  0  0  0  0  0  0  0  0
   20.8232   17.7758   24.0444 H   0  0  0  0  0  0  0  0  0  0  0  0
   20.6662   19.3892   22.5906 C   0  0  0  0  0  0  0  0  0  0  0  0
   21.6475   19.1928   22.1396 H   0  0  0  0  0  0  0  0  0  0  0  0
   20.5388   20.4806   22.5961 H   0  0  0  0  0  0  0  0  0  0  0  0
   19.5572   18.7365   21.7262 C   0  0  0  0  0  0  0  0  0  0  0  0
   19.6961   17.6468   21.7062 H   0  0  0  0  0  0  0  0  0  0  0  0
   18.5776   18.9146   22.1888 H   0  0  0  0  0  0  0  0  0  0  0  0
   19.5085   19.2766   20.2761 C   0  0  0  0  0  0  0  0  0  0  0  0
   19.3591   20.3653   20.2894 H   0  0  0  0  0  0  0  0  0  0  0  0
   18.6286   18.8526   19.7722 H   0  0  0  0  0  0  0  0  0  0  0  0
   20.7676   18.9342   19.4471 C   0  0  0  0  0  0  0  0  0  0  0  0
   21.6590   19.4402   19.8379 H   0  0  0  0  0  0  0  0  0  0  0  0
   20.6392   19.2532   18.4046 H   0  0  0  0  0  0  0  0  0  0  0  0
   20.9579   17.8531   19.4455 H   0  0  0  0  0  0  0  0  0  0  0  0
   20.4158   19.4384   27.1306 C   0  0  0  0  0  0  0  0  0  0  0  0
   20.3396   19.0705   28.1562 H   0  0  0  0  0  0  0  0  0  0  0  0
   21.4174   19.2406   26.7437 H   0  0  0  0  0  0  0  0  0  0  0  0
   20.2147   20.5116   27.1081 H   0  0  0  0  0  0  0  0  0  0  0  0
  1  2  1  0  0  0  0
  1  3  1  0  0  0  0
  1  4  1  0  0  0  0
  4  5  1  0  0  0  0
  4  6  1  0  0  0  0
  4  7  1  0  0  0  0
  7  8  1  0  0  0  0
  7  9  1  0  0  0  0
  7 10  1  0  0  0  0
 10 11  1  0  0  0  0
 10 12  1  0  0  0  0
 10 13  1  0  0  0  0
 13 14  1  0  0  0  0
 13 15  1  0  0  0  0
 13 16  1  0  0  0  0
 16 17  1  0  0  0  0
 16 18  1  0  0  0  0
 16 19  1  0  0  0  0
 19 20  1  0  0  0  0
 19 21  1  0  0  0  0
 19 22  1  0  0  0  0
  1 23  1  0  0  0  0
 23 24  1  0  0  0  0
 23 25  1  0  0  0  0
 23 26  1  0  0  0  0
M  END
> <VM2 Rank>
63

> <Conf_Id>
734

> <Probability>
0.49

> <Sum Probability>
89.44

> <Delta G>
1.590

> <G>
77.056

> <E>
44.546

> <-TS>
32.510

> <U+W>
23.084

> <U>
72.298

> <W>
-49.214

> <W(PB)>
-51.498

> <W(SA)>
2.284

> <Valence>
2.869

> <Coulomb>
68.765

> <VdW>
0.665

> <VdW6>
-7.141

> <VdW12>
7.805

> <Bond>
0.231

> <Angle>
0.882

> <Pdih>
1.756

> <Idih>
0.000

> <Tether>
0.000

$$$$
VeraChem MOL file


 26 25  0  0  0  0  0  0  0  0999 V2000     
   19.4890   18.6618   25.8530 N   0  3  0  0  0  0  0  0  0  0  0  0
   20.0515   17.9293   26.3132 H   0  0  0  0  0  0  0  0  0  0  0  0
   18.6344   18.1861   25.5243 H   0  0  0  0  0  0  0  0  0  0  0  0
   20.2490   19.2436   24.6782 C   0  0  0  0  0  0  0  0  0  0  0  0
   21.1498   19.7255   25.0663 H   0  0  0  0  0  0  0  0  0  0  0  0
   19.6186   20.0092   24.2197 H   0  0  0  0  0  0  0  0  0  0  0  0
   20.6381   18.1911   23.6227 C   0  0  0  0  0  0  0  0  0  0  0  0
   21.2412   17.4081   24.1010 H   0  0  0  0  0  0  0  0  0  0  0  0
   19.7351   17.6960   23.2432 H   0  0  0  0  0  0  0  0  0  0  0  0
   21.4447   18.7951   22.4463 C   0  0  0  0  0  0  0  0  0  0  0  0
   21.7064   17.9944   21.7418 H   0  0  0  0  0  0  0  0  0  0  0  0
   22.4015   19.1751   22.8304 H   0  0  0  0  0  0  0  0  0  0  0  0
   20.7267   19.9423   21.6851 C   0  0  0  0  0  0  0  0  0  0  0  0
   20.6165   20.8090   22.3506 H   0  0  0  0  0  0  0  0  0  0  0  0
   21.3770   20.2805   20.8666 H   0  0  0  0  0  0  0  0  0  0  0  0
   19.3374   19.5784   21.1018 C   0  0  0  0  0  0  0  0  0  0  0  0
   18.9250   20.4653   20.6006 H   0  0  0  0  0  0  0  0  0  0  0  0
   18.6360   19.3383   21.9120 H   0  0  0  0  0  0  0  0  0  0  0  0
   19.3842   18.4118   20.0890 C   0  0  0  0  0  0  0  0  0  0  0  0
   19.6875   17.4734   20.5695 H   0  0  0  0  0  0  0  0  0  0  0  0
   20.0888   18.6244   19.2746 H   0  0  0  0  0  0  0  0  0  0  0  0
   18.3945   18.2498   19.6429 H   0  0  0  0  0  0  0  0  0  0  0  0
   19.1390   19.7659   26.8410 C   0  0  0  0  0  0  0  0  0  0  0  0
   18.5925   19.3338   27.6822 H   0  0  0  0  0  0  0  0  0  0  0  0
   20.0595   20.2320   27.1995 H   0  0  0  0  0  0  0  0  0  0  0  0
   18.5170   20.5115   26.3409 H   0  0  0  0  0  0  0  0  0  0  0  0
  1  2  1  0  0  0  0
  1  3  1  0  0  0  0
  1  4  1  0  0  0  0
  4  5  1  0  0  0  0
  4  6  1  0  0  0  0
  4  7  1  0  0  0  0
  7  8  1  0  0  0  0
  7  9  1  0  0  0  0
  7 10  1  0  0  0  0
 10 11  1  0  0  0  0
 10 12  1  0  0  0  0
 10 13  1  0  0  0  0
 13 14  1  0  0  0  0
 13 15  1  0  0  0  0
 13 16  1  0  0  0  0
 16 17  1  0  0  0  0
 16 18  1  0  0  0  0
 16 19  1  0  0  0  0
 19 20  1  0  0  0  0
 19 21  1  0  0  0  0
 19 22  1  0  0  0  0
  1 23  1  0  0  0  0
 23 24  1  0  0  0  0
 23 25  1  0  0  0  0
 23 26  1  0  0  0  0
M  END
> <VM2 Rank>
64

> <Conf_Id>
385

> <Probability>
0.42

> <Sum Probability>
89.86

> <Delta G>
1.692

> <G>
77.158

> <E>
44.330

> <-TS>
32.828

> <U+W>
22.868

> <U>
72.454

> <W>
-49.587

> <W(PB)>
-51.821

> <W(SA)>
2.234

> <Valence>
2.909

> <Coulomb>
69.434

> <VdW>
0.111

> <VdW6>
-7.764

> <VdW12>
7.876

> <Bond>
0.233

> <Angle>
1.170

> <Pdih>
1.506

> <Idih>
0.000

> <Tether>
0.000

$$$$
VeraChem MOL file


 26 25  0  0  0  0  0  0  0  0999 V2000     
   20.2794   18.9160   25.6473 N   0  3  0  0  0  0  0  0  0  0  0  0
   20.9362   18.2754   25.1769 H   0  0  0  0  0  0  0  0  0  0  0  0
   19.6981   18.3188   26.2556 H   0  0  0  0  0  0  0  0  0  0  0  0
   19.4114   19.6141   24.6190 C   0  0  0  0  0  0  0  0  0  0  0  0
   20.0588   20.2420   24.0020 H   0  0  0  0  0  0  0  0  0  0  0  0
   18.7184   20.2656   25.1574 H   0  0  0  0  0  0  0  0  0  0  0  0
   18.6140   18.6481   23.7191 C   0  0  0  0  0  0  0  0  0  0  0  0
   17.9377   18.0500   24.3440 H   0  0  0  0  0  0  0  0  0  0  0  0
   17.9662   19.2360   23.0563 H   0  0  0  0  0  0  0  0  0  0  0  0
   19.5015   17.6976   22.8728 C   0  0  0  0  0  0  0  0  0  0  0  0
   18.8528   17.0877   22.2289 H   0  0  0  0  0  0  0  0  0  0  0  0
   20.0094   16.9869   23.5386 H   0  0  0  0  0  0  0  0  0  0  0  0
   20.5644   18.4067   21.9937 C   0  0  0  0  0  0  0  0  0  0  0  0
   21.2817   18.9439   22.6285 H   0  0  0  0  0  0  0  0  0  0  0  0
   21.1453   17.6381   21.4654 H   0  0  0  0  0  0  0  0  0  0  0  0
   19.9579   19.3796   20.9550 C   0  0  0  0  0  0  0  0  0  0  0  0
   19.4292   20.1965   21.4642 H   0  0  0  0  0  0  0  0  0  0  0  0
   19.2139   18.8516   20.3423 H   0  0  0  0  0  0  0  0  0  0  0  0
   21.0432   19.9813   20.0369 C   0  0  0  0  0  0  0  0  0  0  0  0
   21.5686   19.1957   19.4785 H   0  0  0  0  0  0  0  0  0  0  0  0
   21.7860   20.5422   20.6190 H   0  0  0  0  0  0  0  0  0  0  0  0
   20.5963   20.6702   19.3084 H   0  0  0  0  0  0  0  0  0  0  0  0
   21.0362   19.9466   26.4731 C   0  0  0  0  0  0  0  0  0  0  0  0
   20.3197   20.5930   26.9846 H   0  0  0  0  0  0  0  0  0  0  0  0
   21.6576   19.4305   27.2084 H   0  0  0  0  0  0  0  0  0  0  0  0
   21.6670   20.5442   25.8114 H   0  0  0  0  0  0  0  0  0  0  0  0
  1  2  1  0  0  0  0
  1  3  1  0  0  0  0
  1  4  1  0  0  0  0
  4  5  1  0  0  0  0
  4  6  1  0  0  0  0
  4  7  1  0  0  0  0
  7  8  1  0  0  0  0
  7  9  1  0  0  0  0
  7 10  1  0  0  0  0
 10 11  1  0  0  0  0
 10 12  1  0  0  0  0
 10 13  1  0  0  0  0
 13 14  1  0  0  0  0
 13 15  1  0  0  0  0
 13 16  1  0  0  0  0
 16 17  1  0  0  0  0
 16 18  1  0  0  0  0
 16 19  1  0  0  0  0
 19 20  1  0  0  0  0
 19 21  1  0  0  0  0
 19 22  1  0  0  0  0
  1 23  1  0  0  0  0
 23 24  1  0  0  0  0
 23 25  1  0  0  0  0
 23 26  1  0  0  0  0
M  END
> <VM2 Rank>
65

> <Conf_Id>
1340

> <Probability>
0.40

> <Sum Probability>
90.26

> <Delta G>
1.714

> <G>
77.180

> <E>
44.472

> <-TS>
32.708

> <U+W>
23.010

> <U>
72.452

> <W>
-49.442

> <W(PB)>
-51.701

> <W(SA)>
2.259

> <Valence>
2.611

> <Coulomb>
69.807

> <VdW>
0.035

> <VdW6>
-7.729

> <VdW12>
7.764

> <Bond>
0.213

> <Angle>
0.953

> <Pdih>
1.445

> <Idih>
0.000

> <Tether>
0.000

$$$$
VeraChem MOL file


 26 25  0  0  0  0  0  0  0  0999 V2000     
   19.7712   18.8273   25.9221 N   0  3  0  0  0  0  0  0  0  0  0  0
   20.2974   17.9555   26.0887 H   0  0  0  0  0  0  0  0  0  0  0  0
   18.8627   18.5319   25.5344 H   0  0  0  0  0  0  0  0  0  0  0  0
   20.5072   19.6975   24.9216 C   0  0  0  0  0  0  0  0  0  0  0  0
   21.4592   19.9856   25.3747 H   0  0  0  0  0  0  0  0  0  0  0  0
   19.9169   20.6036   24.7632 H   0  0  0  0  0  0  0  0  0  0  0  0
   20.7744   19.0093   23.5684 C   0  0  0  0  0  0  0  0  0  0  0  0
   21.4094   19.6751   22.9707 H   0  0  0  0  0  0  0  0  0  0  0  0
   21.3499   18.0886   23.7321 H   0  0  0  0  0  0  0  0  0  0  0  0
   19.4720   18.6922   22.7912 C   0  0  0  0  0  0  0  0  0  0  0  0
   18.9109   19.6194   22.6140 H   0  0  0  0  0  0  0  0  0  0  0  0
   18.8218   18.0601   23.4102 H   0  0  0  0  0  0  0  0  0  0  0  0
   19.7153   17.9563   21.4478 C   0  0  0  0  0  0  0  0  0  0  0  0
   20.1817   16.9828   21.6531 H   0  0  0  0  0  0  0  0  0  0  0  0
   18.7426   17.7315   20.9890 H   0  0  0  0  0  0  0  0  0  0  0  0
   20.5875   18.7205   20.4189 C   0  0  0  0  0  0  0  0  0  0  0  0
   20.6820   18.1031   19.5146 H   0  0  0  0  0  0  0  0  0  0  0  0
   21.6086   18.8450   20.8034 H   0  0  0  0  0  0  0  0  0  0  0  0
   20.0076   20.0972   20.0221 C   0  0  0  0  0  0  0  0  0  0  0  0
   18.9787   20.0003   19.6522 H   0  0  0  0  0  0  0  0  0  0  0  0
   20.6094   20.5528   19.2251 H   0  0  0  0  0  0  0  0  0  0  0  0
   20.0042   20.7922   20.8710 H   0  0  0  0  0  0  0  0  0  0  0  0
   19.5727   19.5896   27.2248 C   0  0  0  0  0  0  0  0  0  0  0  0
   18.9872   20.4904   27.0282 H   0  0  0  0  0  0  0  0  0  0  0  0
   19.0419   18.9523   27.9356 H   0  0  0  0  0  0  0  0  0  0  0  0
   20.5482   19.8639   27.6325 H   0  0  0  0  0  0  0  0  0  0  0  0
  1  2  1  0  0  0  0
  1  3  1  0  0  0  0
  1  4  1  0  0  0  0
  4  5  1  0  0  0  0
  4  6  1  0  0  0  0
  4  7  1  0  0  0  0
  7  8  1  0  0  0  0
  7  9  1  0  0  0  0
  7 10  1  0  0  0  0
 10 11  1  0  0  0  0
 10 12  1  0  0  0  0
 10 13  1  0  0  0  0
 13 14  1  0  0  0  0
 13 15  1  0  0  0  0
 13 16  1  0  0  0  0
 16 17  1  0  0  0  0
 16 18  1  0  0  0  0
 16 19  1  0  0  0  0
 19 20  1  0  0  0  0
 19 21  1  0  0  0  0
 19 22  1  0  0  0  0
  1 23  1  0  0  0  0
 23 24  1  0  0  0  0
 23 25  1  0  0  0  0
 23 26  1  0  0  0  0
M  END
> <VM2 Rank>
66

> <Conf_Id>
736

> <Probability>
0.39

> <Sum Probability>
90.65

> <Delta G>
1.729

> <G>
77.195

> <E>
44.524

> <-TS>
32.670

> <U+W>
23.062

> <U>
72.391

> <W>
-49.329

> <W(PB)>
-51.594

> <W(SA)>
2.265

> <Valence>
2.829

> <Coulomb>
69.222

> <VdW>
0.340

> <VdW6>
-7.379

> <VdW12>
7.719

> <Bond>
0.228

> <Angle>
1.104

> <Pdih>
1.497

> <Idih>
0.000

> <Tether>
0.000

$$$$
VeraChem MOL file


 26 25  0  0  0  0  0  0  0  0999 V2000     
   19.6950   18.8557   25.6265 N   0  3  0  0  0  0  0  0  0  0  0  0
   20.3417   18.3852   26.2784 H   0  0  0  0  0  0  0  0  0  0  0  0
   19.2172   18.0982   25.1158 H   0  0  0  0  0  0  0  0  0  0  0  0
   20.4725   19.7235   24.6564 C   0  0  0  0  0  0  0  0  0  0  0  0
   20.9788   20.4986   25.2374 H   0  0  0  0  0  0  0  0  0  0  0  0
   19.7557   20.2107   23.9911 H   0  0  0  0  0  0  0  0  0  0  0  0
   21.5111   18.9467   23.8216 C   0  0  0  0  0  0  0  0  0  0  0  0
   22.0703   19.6589   23.2016 H   0  0  0  0  0  0  0  0  0  0  0  0
   22.2496   18.4944   24.4968 H   0  0  0  0  0  0  0  0  0  0  0  0
   20.8974   17.8414   22.9222 C   0  0  0  0  0  0  0  0  0  0  0  0
   20.4998   17.0373   23.5559 H   0  0  0  0  0  0  0  0  0  0  0  0
   21.7001   17.3813   22.3296 H   0  0  0  0  0  0  0  0  0  0  0  0
   19.7764   18.3253   21.9659 C   0  0  0  0  0  0  0  0  0  0  0  0
   19.4027   17.4583   21.4037 H   0  0  0  0  0  0  0  0  0  0  0  0
   18.9221   18.7004   22.5451 H   0  0  0  0  0  0  0  0  0  0  0  0
   20.2429   19.4090   20.9653 C   0  0  0  0  0  0  0  0  0  0  0  0
   21.1198   19.0482   20.4098 H   0  0  0  0  0  0  0  0  0  0  0  0
   20.5571   20.3127   21.5043 H   0  0  0  0  0  0  0  0  0  0  0  0
   19.1246   19.7837   19.9694 C   0  0  0  0  0  0  0  0  0  0  0  0
   19.4714   20.5545   19.2690 H   0  0  0  0  0  0  0  0  0  0  0  0
   18.2442   20.1771   20.4942 H   0  0  0  0  0  0  0  0  0  0  0  0
   18.8105   18.9116   19.3812 H   0  0  0  0  0  0  0  0  0  0  0  0
   18.6881   19.7047   26.3896 C   0  0  0  0  0  0  0  0  0  0  0  0
   17.9968   20.1659   25.6809 H   0  0  0  0  0  0  0  0  0  0  0  0
   18.1349   19.0674   27.0832 H   0  0  0  0  0  0  0  0  0  0  0  0
   19.2202   20.4798   26.9454 H   0  0  0  0  0  0  0  0  0  0  0  0
  1  2  1  0  0  0  0
  1  3  1  0  0  0  0
  1  4  1  0  0  0  0
  4  5  1  0  0  0  0
  4  6  1  0  0  0  0
  4  7  1  0  0  0  0
  7  8  1  0  0  0  0
  7  9  1  0  0  0  0
  7 10  1  0  0  0  0
 10 11  1  0  0  0  0
 10 12  1  0  0  0  0
 10 13  1  0  0  0  0
 13 14  1  0  0  0  0
 13 15  1  0  0  0  0
 13 16  1  0  0  0  0
 16 17  1  0  0  0  0
 16 18  1  0  0  0  0
 16 19  1  0  0  0  0
 19 20  1  0  0  0  0
 19 21  1  0  0  0  0
 19 22  1  0  0  0  0
  1 23  1  0  0  0  0
 23 24  1  0  0  0  0
 23 25  1  0  0  0  0
 23 26  1  0  0  0  0
M  END
> <VM2 Rank>
67

> <Conf_Id>
504

> <Probability>
0.39

> <Sum Probability>
91.04

> <Delta G>
1.736

> <G>
77.202

> <E>
44.494

> <-TS>
32.709

> <U+W>
23.032

> <U>
72.453

> <W>
-49.421

> <W(PB)>
-51.690

> <W(SA)>
2.270

> <Valence>
2.611

> <Coulomb>
69.807

> <VdW>
0.035

> <VdW6>
-7.730

> <VdW12>
7.765

> <Bond>
0.213

> <Angle>
0.953

> <Pdih>
1.445

> <Idih>
0.000

> <Tether>
0.000

$$$$
VeraChem MOL file


 26 25  0  0  0  0  0  0  0  0999 V2000     
   20.5038   18.7657   25.8888 N   0  3  0  0  0  0  0  0  0  0  0  0
   21.4577   18.4748   25.6241 H   0  0  0  0  0  0  0  0  0  0  0  0
   20.0702   17.9314   26.3139 H   0  0  0  0  0  0  0  0  0  0  0  0
   19.7259   19.1900   24.6595 C   0  0  0  0  0  0  0  0  0  0  0  0
   20.2190   20.0706   24.2407 H   0  0  0  0  0  0  0  0  0  0  0  0
   18.7213   19.4770   24.9801 H   0  0  0  0  0  0  0  0  0  0  0  0
   19.6325   18.0881   23.5870 C   0  0  0  0  0  0  0  0  0  0  0  0
   20.6412   17.7885   23.2753 H   0  0  0  0  0  0  0  0  0  0  0  0
   19.1683   17.1959   24.0276 H   0  0  0  0  0  0  0  0  0  0  0  0
   18.8048   18.5248   22.3527 C   0  0  0  0  0  0  0  0  0  0  0  0
   17.7664   18.7005   22.6661 H   0  0  0  0  0  0  0  0  0  0  0  0
   18.7607   17.6928   21.6373 H   0  0  0  0  0  0  0  0  0  0  0  0
   19.3274   19.7990   21.6355 C   0  0  0  0  0  0  0  0  0  0  0  0
   18.6813   20.0044   20.7709 H   0  0  0  0  0  0  0  0  0  0  0  0
   19.2127   20.6654   22.3008 H   0  0  0  0  0  0  0  0  0  0  0  0
   20.7991   19.7282   21.1539 C   0  0  0  0  0  0  0  0  0  0  0  0
   21.4758   19.6293   22.0132 H   0  0  0  0  0  0  0  0  0  0  0  0
   21.0576   20.6837   20.6765 H   0  0  0  0  0  0  0  0  0  0  0  0
   21.0608   18.5834   20.1490 C   0  0  0  0  0  0  0  0  0  0  0  0
   20.3869   18.6548   19.2855 H   0  0  0  0  0  0  0  0  0  0  0  0
   20.9207   17.5997   20.6138 H   0  0  0  0  0  0  0  0  0  0  0  0
   22.0917   18.6283   19.7747 H   0  0  0  0  0  0  0  0  0  0  0  0
   20.5535   19.9108   26.8906 C   0  0  0  0  0  0  0  0  0  0  0  0
   21.0455   20.7702   26.4298 H   0  0  0  0  0  0  0  0  0  0  0  0
   19.5352   20.1788   27.1806 H   0  0  0  0  0  0  0  0  0  0  0  0
   21.1160   19.5922   27.7711 H   0  0  0  0  0  0  0  0  0  0  0  0
  1  2  1  0  0  0  0
  1  3  1  0  0  0  0
  1  4  1  0  0  0  0
  4  5  1  0  0  0  0
  4  6  1  0  0  0  0
  4  7  1  0  0  0  0
  7  8  1  0  0  0  0
  7  9  1  0  0  0  0
  7 10  1  0  0  0  0
 10 11  1  0  0  0  0
 10 12  1  0  0  0  0
 10 13  1  0  0  0  0
 13 14  1  0  0  0  0
 13 15  1  0  0  0  0
 13 16  1  0  0  0  0
 16 17  1  0  0  0  0
 16 18  1  0  0  0  0
 16 19  1  0  0  0  0
 19 20  1  0  0  0  0
 19 21  1  0  0  0  0
 19 22  1  0  0  0  0
  1 23  1  0  0  0  0
 23 24  1  0  0  0  0
 23 25  1  0  0  0  0
 23 26  1  0  0  0  0
M  END
> <VM2 Rank>
68

> <Conf_Id>
431

> <Probability>
0.37

> <Sum Probability>
91.41

> <Delta G>
1.760

> <G>
77.226

> <E>
44.397

> <-TS>
32.829

> <U+W>
22.935

> <U>
72.455

> <W>
-49.520

> <W(PB)>
-51.798

> <W(SA)>
2.278

> <Valence>
2.908

> <Coulomb>
69.435

> <VdW>
0.111

> <VdW6>
-7.765

> <VdW12>
7.877

> <Bond>
0.233

> <Angle>
1.170

> <Pdih>
1.506

> <Idih>
0.000

> <Tether>
0.000

$$$$
VeraChem MOL file


 26 25  0  0  0  0  0  0  0  0999 V2000     
   20.1900   18.8703   25.9370 N   0  3  0  0  0  0  0  0  0  0  0  0
   21.1645   18.7685   25.6161 H   0  0  0  0  0  0  0  0  0  0  0  0
   19.8416   17.9086   26.0724 H   0  0  0  0  0  0  0  0  0  0  0  0
   19.3646   19.5802   24.8811 C   0  0  0  0  0  0  0  0  0  0  0  0
   19.7682   20.5883   24.7581 H   0  0  0  0  0  0  0  0  0  0  0  0
   18.3446   19.6656   25.2643 H   0  0  0  0  0  0  0  0  0  0  0  0
   19.3383   18.8618   23.5175 C   0  0  0  0  0  0  0  0  0  0  0  0
   18.9520   17.8422   23.6470 H   0  0  0  0  0  0  0  0  0  0  0  0
   18.6247   19.3890   22.8721 H   0  0  0  0  0  0  0  0  0  0  0  0
   20.7291   18.8218   22.8357 C   0  0  0  0  0  0  0  0  0  0  0  0
   21.4493   18.3309   23.5032 H   0  0  0  0  0  0  0  0  0  0  0  0
   21.1008   19.8450   22.6913 H   0  0  0  0  0  0  0  0  0  0  0  0
   20.7352   18.0613   21.4840 C   0  0  0  0  0  0  0  0  0  0  0  0
   21.7629   18.0425   21.0960 H   0  0  0  0  0  0  0  0  0  0  0  0
   20.4635   17.0119   21.6633 H   0  0  0  0  0  0  0  0  0  0  0  0
   19.7997   18.6393   20.3910 C   0  0  0  0  0  0  0  0  0  0  0  0
   18.7504   18.5506   20.7024 H   0  0  0  0  0  0  0  0  0  0  0  0
   19.8963   18.0219   19.4870 H   0  0  0  0  0  0  0  0  0  0  0  0
   20.1136   20.1079   20.0256 C   0  0  0  0  0  0  0  0  0  0  0  0
   21.1640   20.2250   19.7291 H   0  0  0  0  0  0  0  0  0  0  0  0
   19.9162   20.7831   20.8675 H   0  0  0  0  0  0  0  0  0  0  0  0
   19.4889   20.4370   19.1852 H   0  0  0  0  0  0  0  0  0  0  0  0
   20.1375   19.6474   27.2450 C   0  0  0  0  0  0  0  0  0  0  0  0
   19.1005   19.7148   27.5812 H   0  0  0  0  0  0  0  0  0  0  0  0
   20.7355   19.1260   27.9958 H   0  0  0  0  0  0  0  0  0  0  0  0
   20.5402   20.6498   27.0837 H   0  0  0  0  0  0  0  0  0  0  0  0
  1  2  1  0  0  0  0
  1  3  1  0  0  0  0
  1  4  1  0  0  0  0
  4  5  1  0  0  0  0
  4  6  1  0  0  0  0
  4  7  1  0  0  0  0
  7  8  1  0  0  0  0
  7  9  1  0  0  0  0
  7 10  1  0  0  0  0
 10 11  1  0  0  0  0
 10 12  1  0  0  0  0
 10 13  1  0  0  0  0
 13 14  1  0  0  0  0
 13 15  1  0  0  0  0
 13 16  1  0  0  0  0
 16 17  1  0  0  0  0
 16 18  1  0  0  0  0
 16 19  1  0  0  0  0
 19 20  1  0  0  0  0
 19 21  1  0  0  0  0
 19 22  1  0  0  0  0
  1 23  1  0  0  0  0
 23 24  1  0  0  0  0
 23 25  1  0  0  0  0
 23 26  1  0  0  0  0
M  END
> <VM2 Rank>
69

> <Conf_Id>
530

> <Probability>
0.35

> <Sum Probability>
91.76

> <Delta G>
1.794

> <G>
77.260

> <E>
44.589

> <-TS>
32.671

> <U+W>
23.128

> <U>
72.391

> <W>
-49.264

> <W(PB)>
-51.513

> <W(SA)>
2.250

> <Valence>
2.830

> <Coulomb>
69.222

> <VdW>
0.339

> <VdW6>
-7.379

> <VdW12>
7.718

> <Bond>
0.228

> <Angle>
1.104

> <Pdih>
1.497

> <Idih>
0.000

> <Tether>
0.000

$$$$
VeraChem MOL file


 26 25  0  0  0  0  0  0  0  0999 V2000     
   20.5056   19.4037   25.6188 N   0  3  0  0  0  0  0  0  0  0  0  0
   20.9491   19.9672   24.8780 H   0  0  0  0  0  0  0  0  0  0  0  0
   21.2555   18.8056   25.9988 H   0  0  0  0  0  0  0  0  0  0  0  0
   19.4041   18.5461   25.0272 C   0  0  0  0  0  0  0  0  0  0  0  0
   18.6299   19.2124   24.6397 H   0  0  0  0  0  0  0  0  0  0  0  0
   18.9695   17.9585   25.8399 H   0  0  0  0  0  0  0  0  0  0  0  0
   19.8840   17.5970   23.9094 C   0  0  0  0  0  0  0  0  0  0  0  0
   20.6184   16.8951   24.3263 H   0  0  0  0  0  0  0  0  0  0  0  0
   19.0335   16.9871   23.5769 H   0  0  0  0  0  0  0  0  0  0  0  0
   20.5037   18.3188   22.6858 C   0  0  0  0  0  0  0  0  0  0  0  0
   20.8345   17.5534   21.9719 H   0  0  0  0  0  0  0  0  0  0  0  0
   21.4076   18.8629   22.9900 H   0  0  0  0  0  0  0  0  0  0  0  0
   19.5182   19.2891   21.9856 C   0  0  0  0  0  0  0  0  0  0  0  0
   18.6266   18.7377   21.6568 H   0  0  0  0  0  0  0  0  0  0  0  0
   19.1681   20.0412   22.7048 H   0  0  0  0  0  0  0  0  0  0  0  0
   20.1391   20.0328   20.7781 C   0  0  0  0  0  0  0  0  0  0  0  0
   21.0249   20.5963   21.1033 H   0  0  0  0  0  0  0  0  0  0  0  0
   19.4177   20.7784   20.4156 H   0  0  0  0  0  0  0  0  0  0  0  0
   20.5181   19.0987   19.6061 C   0  0  0  0  0  0  0  0  0  0  0  0
   21.3303   18.4144   19.8808 H   0  0  0  0  0  0  0  0  0  0  0  0
   20.8600   19.6849   18.7433 H   0  0  0  0  0  0  0  0  0  0  0  0
   19.6567   18.4995   19.2839 H   0  0  0  0  0  0  0  0  0  0  0  0
   19.9352   20.3037   26.7059 C   0  0  0  0  0  0  0  0  0  0  0  0
   20.7383   20.9160   27.1221 H   0  0  0  0  0  0  0  0  0  0  0  0
   19.1669   20.9478   26.2725 H   0  0  0  0  0  0  0  0  0  0  0  0
   19.4985   19.6842   27.4923 H   0  0  0  0  0  0  0  0  0  0  0  0
  1  2  1  0  0  0  0
  1  3  1  0  0  0  0
  1  4  1  0  0  0  0
  4  5  1  0  0  0  0
  4  6  1  0  0  0  0
  4  7  1  0  0  0  0
  7  8  1  0  0  0  0
  7  9  1  0  0  0  0
  7 10  1  0  0  0  0
 10 11  1  0  0  0  0
 10 12  1  0  0  0  0
 10 13  1  0  0  0  0
 13 14  1  0  0  0  0
 13 15  1  0  0  0  0
 13 16  1  0  0  0  0
 16 17  1  0  0  0  0
 16 18  1  0  0  0  0
 16 19  1  0  0  0  0
 19 20  1  0  0  0  0
 19 21  1  0  0  0  0
 19 22  1  0  0  0  0
  1 23  1  0  0  0  0
 23 24  1  0  0  0  0
 23 25  1  0  0  0  0
 23 26  1  0  0  0  0
M  END
> <VM2 Rank>
70

> <Conf_Id>
91

> <Probability>
0.33

> <Sum Probability>
92.09

> <Delta G>
1.832

> <G>
77.298

> <E>
44.768

> <-TS>
32.530

> <U+W>
23.306

> <U>
72.579

> <W>
-49.273

> <W(PB)>
-51.540

> <W(SA)>
2.267

> <Valence>
2.678

> <Coulomb>
69.622

> <VdW>
0.279

> <VdW6>
-7.328

> <VdW12>
7.608

> <Bond>
0.212

> <Angle>
0.911

> <Pdih>
1.554

> <Idih>
0.000

> <Tether>
0.000

$$$$
VeraChem MOL file


 26 25  0  0  0  0  0  0  0  0999 V2000     
   19.5020   18.7318   25.7554 N   0  3  0  0  0  0  0  0  0  0  0  0
   19.5165   18.4215   26.7400 H   0  0  0  0  0  0  0  0  0  0  0  0
   19.0840   17.9472   25.2337 H   0  0  0  0  0  0  0  0  0  0  0  0
   20.9252   18.9768   25.2782 C   0  0  0  0  0  0  0  0  0  0  0  0
   21.5103   18.0876   25.5265 H   0  0  0  0  0  0  0  0  0  0  0  0
   21.3273   19.8148   25.8532 H   0  0  0  0  0  0  0  0  0  0  0  0
   21.0718   19.2688   23.7690 C   0  0  0  0  0  0  0  0  0  0  0  0
   20.5413   20.1972   23.5250 H   0  0  0  0  0  0  0  0  0  0  0  0
   22.1326   19.4514   23.5527 H   0  0  0  0  0  0  0  0  0  0  0  0
   20.5606   18.1053   22.8834 C   0  0  0  0  0  0  0  0  0  0  0  0
   19.4852   17.9544   23.0424 H   0  0  0  0  0  0  0  0  0  0  0  0
   21.0483   17.1735   23.2017 H   0  0  0  0  0  0  0  0  0  0  0  0
   20.8380   18.3116   21.3719 C   0  0  0  0  0  0  0  0  0  0  0  0
   21.9241   18.3448   21.2086 H   0  0  0  0  0  0  0  0  0  0  0  0
   20.4793   17.4291   20.8243 H   0  0  0  0  0  0  0  0  0  0  0  0
   20.2001   19.5803   20.7499 C   0  0  0  0  0  0  0  0  0  0  0  0
   20.4595   19.6143   19.6825 H   0  0  0  0  0  0  0  0  0  0  0  0
   20.6404   20.4833   21.1937 H   0  0  0  0  0  0  0  0  0  0  0  0
   18.6614   19.6279   20.8896 C   0  0  0  0  0  0  0  0  0  0  0  0
   18.3550   19.7166   21.9392 H   0  0  0  0  0  0  0  0  0  0  0  0
   18.1990   18.7246   20.4710 H   0  0  0  0  0  0  0  0  0  0  0  0
   18.2532   20.4937   20.3525 H   0  0  0  0  0  0  0  0  0  0  0  0
   18.6488   19.9877   25.6195 C   0  0  0  0  0  0  0  0  0  0  0  0
   18.5881   20.2706   24.5667 H   0  0  0  0  0  0  0  0  0  0  0  0
   17.6469   19.7823   26.0030 H   0  0  0  0  0  0  0  0  0  0  0  0
   19.1057   20.7956   26.1952 H   0  0  0  0  0  0  0  0  0  0  0  0
  1  2  1  0  0  0  0
  1  3  1  0  0  0  0
  1  4  1  0  0  0  0
  4  5  1  0  0  0  0
  4  6  1  0  0  0  0
  4  7  1  0  0  0  0
  7  8  1  0  0  0  0
  7  9  1  0  0  0  0
  7 10  1  0  0  0  0
 10 11  1  0  0  0  0
 10 12  1  0  0  0  0
 10 13  1  0  0  0  0
 13 14  1  0  0  0  0
 13 15  1  0  0  0  0
 13 16  1  0  0  0  0
 16 17  1  0  0  0  0
 16 18  1  0  0  0  0
 16 19  1  0  0  0  0
 19 20  1  0  0  0  0
 19 21  1  0  0  0  0
 19 22  1  0  0  0  0
  1 23  1  0  0  0  0
 23 24  1  0  0  0  0
 23 25  1  0  0  0  0
 23 26  1  0  0  0  0
M  END
> <VM2 Rank>
71

> <Conf_Id>
1117

> <Probability>
0.31

> <Sum Probability>
92.40

> <Delta G>
1.871

> <G>
77.337

> <E>
44.375

> <-TS>
32.963

> <U+W>
22.913

> <U>
72.925

> <W>
-50.012

> <W(PB)>
-52.194

> <W(SA)>
2.182

> <Valence>
3.007

> <Coulomb>
69.583

> <VdW>
0.336

> <VdW6>
-8.608

> <VdW12>
8.943

> <Bond>
0.266

> <Angle>
1.183

> <Pdih>
1.559

> <Idih>
0.000

> <Tether>
0.000

$$$$
VeraChem MOL file


 26 25  0  0  0  0  0  0  0  0999 V2000     
   20.0346   19.2284   26.0796 N   0  3  0  0  0  0  0  0  0  0  0  0
   20.6540   19.7311   26.7349 H   0  0  0  0  0  0  0  0  0  0  0  0
   19.8563   18.3166   26.5282 H   0  0  0  0  0  0  0  0  0  0  0  0
   20.7494   19.0311   24.7537 C   0  0  0  0  0  0  0  0  0  0  0  0
   21.7419   18.6301   24.9745 H   0  0  0  0  0  0  0  0  0  0  0  0
   20.8749   20.0136   24.2925 H   0  0  0  0  0  0  0  0  0  0  0  0
   20.0308   18.0789   23.7746 C   0  0  0  0  0  0  0  0  0  0  0  0
   19.8703   17.1114   24.2680 H   0  0  0  0  0  0  0  0  0  0  0  0
   19.0348   18.4694   23.5323 H   0  0  0  0  0  0  0  0  0  0  0  0
   20.8340   17.8496   22.4703 C   0  0  0  0  0  0  0  0  0  0  0  0
   20.2812   17.1528   21.8262 H   0  0  0  0  0  0  0  0  0  0  0  0
   21.7756   17.3402   22.7177 H   0  0  0  0  0  0  0  0  0  0  0  0
   21.1640   19.1415   21.6746 C   0  0  0  0  0  0  0  0  0  0  0  0
   21.8598   19.7607   22.2567 H   0  0  0  0  0  0  0  0  0  0  0  0
   21.7104   18.8621   20.7632 H   0  0  0  0  0  0  0  0  0  0  0  0
   19.9380   20.0034   21.2784 C   0  0  0  0  0  0  0  0  0  0  0  0
   20.2940   20.8898   20.7351 H   0  0  0  0  0  0  0  0  0  0  0  0
   19.4350   20.3845   22.1773 H   0  0  0  0  0  0  0  0  0  0  0  0
   18.9210   19.2510   20.3904 C   0  0  0  0  0  0  0  0  0  0  0  0
   19.4041   18.8510   19.4896 H   0  0  0  0  0  0  0  0  0  0  0  0
   18.1177   19.9263   20.0687 H   0  0  0  0  0  0  0  0  0  0  0  0
   18.4552   18.4169   20.9297 H   0  0  0  0  0  0  0  0  0  0  0  0
   18.7363   20.0060   25.8952 C   0  0  0  0  0  0  0  0  0  0  0  0
   18.2707   20.1600   26.8712 H   0  0  0  0  0  0  0  0  0  0  0  0
   18.9587   20.9719   25.4365 H   0  0  0  0  0  0  0  0  0  0  0  0
   18.0615   19.4369   25.2528 H   0  0  0  0  0  0  0  0  0  0  0  0
  1  2  1  0  0  0  0
  1  3  1  0  0  0  0
  1  4  1  0  0  0  0
  4  5  1  0  0  0  0
  4  6  1  0  0  0  0
  4  7  1  0  0  0  0
  7  8  1  0  0  0  0
  7  9  1  0  0  0  0
  7 10  1  0  0  0  0
 10 11  1  0  0  0  0
 10 12  1  0  0  0  0
 10 13  1  0  0  0  0
 13 14  1  0  0  0  0
 13 15  1  0  0  0  0
 13 16  1  0  0  0  0
 16 17  1  0  0  0  0
 16 18  1  0  0  0  0
 16 19  1  0  0  0  0
 19 20  1  0  0  0  0
 19 21  1  0  0  0  0
 19 22  1  0  0  0  0
  1 23  1  0  0  0  0
 23 24  1  0  0  0  0
 23 25  1  0  0  0  0
 23 26  1  0  0  0  0
M  END
> <VM2 Rank>
72

> <Conf_Id>
511

> <Probability>
0.30

> <Sum Probability>
92.71

> <Delta G>
1.879

> <G>
77.345

> <E>
44.338

> <-TS>
33.007

> <U+W>
22.876

> <U>
72.761

> <W>
-49.885

> <W(PB)>
-52.087

> <W(SA)>
2.202

> <Valence>
3.172

> <Coulomb>
69.298

> <VdW>
0.291

> <VdW6>
-8.615

> <VdW12>
8.906

> <Bond>
0.269

> <Angle>
1.270

> <Pdih>
1.633

> <Idih>
0.000

> <Tether>
0.000

$$$$
VeraChem MOL file


 26 25  0  0  0  0  0  0  0  0999 V2000     
   19.3771   19.2881   25.5788 N   0  3  0  0  0  0  0  0  0  0  0  0
   18.7391   18.5477   25.9097 H   0  0  0  0  0  0  0  0  0  0  0  0
   18.8815   19.7553   24.8047 H   0  0  0  0  0  0  0  0  0  0  0  0
   20.6681   18.6756   25.0719 C   0  0  0  0  0  0  0  0  0  0  0  0
   21.1548   18.1825   25.9172 H   0  0  0  0  0  0  0  0  0  0  0  0
   21.3164   19.4878   24.7348 H   0  0  0  0  0  0  0  0  0  0  0  0
   20.4699   17.6571   23.9302 C   0  0  0  0  0  0  0  0  0  0  0  0
   21.4475   17.2345   23.6624 H   0  0  0  0  0  0  0  0  0  0  0  0
   19.8657   16.8179   24.2996 H   0  0  0  0  0  0  0  0  0  0  0  0
   19.8040   18.2471   22.6611 C   0  0  0  0  0  0  0  0  0  0  0  0
   18.7896   18.5945   22.8973 H   0  0  0  0  0  0  0  0  0  0  0  0
   19.6860   17.4356   21.9313 H   0  0  0  0  0  0  0  0  0  0  0  0
   20.6190   19.4020   22.0247 C   0  0  0  0  0  0  0  0  0  0  0  0
   20.7582   20.2042   22.7612 H   0  0  0  0  0  0  0  0  0  0  0  0
   21.6247   19.0451   21.7631 H   0  0  0  0  0  0  0  0  0  0  0  0
   19.9463   20.0130   20.7713 C   0  0  0  0  0  0  0  0  0  0  0  0
   20.5252   20.8921   20.4550 H   0  0  0  0  0  0  0  0  0  0  0  0
   18.9441   20.3828   21.0296 H   0  0  0  0  0  0  0  0  0  0  0  0
   19.8477   19.0300   19.5824 C   0  0  0  0  0  0  0  0  0  0  0  0
   20.8332   18.6203   19.3256 H   0  0  0  0  0  0  0  0  0  0  0  0
   19.4554   19.5409   18.6936 H   0  0  0  0  0  0  0  0  0  0  0  0
   19.1741   18.1933   19.8043 H   0  0  0  0  0  0  0  0  0  0  0  0
   19.6758   20.2771   26.6967 C   0  0  0  0  0  0  0  0  0  0  0  0
   20.3260   21.0666   26.3135 H   0  0  0  0  0  0  0  0  0  0  0  0
   18.7382   20.7109   27.0513 H   0  0  0  0  0  0  0  0  0  0  0  0
   20.1730   19.7533   27.5160 H   0  0  0  0  0  0  0  0  0  0  0  0
  1  2  1  0  0  0  0
  1  3  1  0  0  0  0
  1  4  1  0  0  0  0
  4  5  1  0  0  0  0
  4  6  1  0  0  0  0
  4  7  1  0  0  0  0
  7  8  1  0  0  0  0
  7  9  1  0  0  0  0
  7 10  1  0  0  0  0
 10 11  1  0  0  0  0
 10 12  1  0  0  0  0
 10 13  1  0  0  0  0
 13 14  1  0  0  0  0
 13 15  1  0  0  0  0
 13 16  1  0  0  0  0
 16 17  1  0  0  0  0
 16 18  1  0  0  0  0
 16 19  1  0  0  0  0
 19 20  1  0  0  0  0
 19 21  1  0  0  0  0
 19 22  1  0  0  0  0
  1 23  1  0  0  0  0
 23 24  1  0  0  0  0
 23 25  1  0  0  0  0
 23 26  1  0  0  0  0
M  END
> <VM2 Rank>
73

> <Conf_Id>
944

> <Probability>
0.30

> <Sum Probability>
93.01

> <Delta G>
1.887

> <G>
77.353

> <E>
44.823

> <-TS>
32.529

> <U+W>
23.362

> <U>
72.579

> <W>
-49.217

> <W(PB)>
-51.496

> <W(SA)>
2.279

> <Valence>
2.677

> <Coulomb>
69.622

> <VdW>
0.280

> <VdW6>
-7.328

> <VdW12>
7.608

> <Bond>
0.212

> <Angle>
0.911

> <Pdih>
1.555

> <Idih>
0.000

> <Tether>
0.000

$$$$
VeraChem MOL file


 26 25  0  0  0  0  0  0  0  0999 V2000     
   20.4841   18.8330   25.7902 N   0  3  0  0  0  0  0  0  0  0  0  0
   21.0887   18.1538   25.3047 H   0  0  0  0  0  0  0  0  0  0  0  0
   20.4643   18.5192   26.7735 H   0  0  0  0  0  0  0  0  0  0  0  0
   19.0778   18.7864   25.2128 C   0  0  0  0  0  0  0  0  0  0  0  0
   18.4743   19.5208   25.7522 H   0  0  0  0  0  0  0  0  0  0  0  0
   18.6703   17.7949   25.4260 H   0  0  0  0  0  0  0  0  0  0  0  0
   18.9808   19.0533   23.6949 C   0  0  0  0  0  0  0  0  0  0  0  0
   17.9228   19.0174   23.4036 H   0  0  0  0  0  0  0  0  0  0  0  0
   19.3268   20.0720   23.4820 H   0  0  0  0  0  0  0  0  0  0  0  0
   19.7792   18.0248   22.8558 C   0  0  0  0  0  0  0  0  0  0  0  0
   19.4706   17.0109   23.1460 H   0  0  0  0  0  0  0  0  0  0  0  0
   20.8489   18.0951   23.0907 H   0  0  0  0  0  0  0  0  0  0  0  0
   19.5720   18.1810   21.3271 C   0  0  0  0  0  0  0  0  0  0  0  0
   20.1405   17.3941   20.8124 H   0  0  0  0  0  0  0  0  0  0  0  0
   18.5162   17.9933   21.0879 H   0  0  0  0  0  0  0  0  0  0  0  0
   19.9799   19.5576   20.7421 C   0  0  0  0  0  0  0  0  0  0  0  0
   19.3349   20.3486   21.1474 H   0  0  0  0  0  0  0  0  0  0  0  0
   19.7944   19.5456   19.6589 H   0  0  0  0  0  0  0  0  0  0  0  0
   21.4630   19.9167   20.9888 C   0  0  0  0  0  0  0  0  0  0  0  0
   21.7228   20.8514   20.4753 H   0  0  0  0  0  0  0  0  0  0  0  0
   22.1279   19.1297   20.6101 H   0  0  0  0  0  0  0  0  0  0  0  0
   21.6707   20.0585   22.0566 H   0  0  0  0  0  0  0  0  0  0  0  0
   21.0711   20.2373   25.7052 C   0  0  0  0  0  0  0  0  0  0  0  0
   20.4202   20.9310   26.2418 H   0  0  0  0  0  0  0  0  0  0  0  0
   22.0645   20.2375   26.1592 H   0  0  0  0  0  0  0  0  0  0  0  0
   21.1462   20.5343   24.6572 H   0  0  0  0  0  0  0  0  0  0  0  0
  1  2  1  0  0  0  0
  1  3  1  0  0  0  0
  1  4  1  0  0  0  0
  4  5  1  0  0  0  0
  4  6  1  0  0  0  0
  4  7  1  0  0  0  0
  7  8  1  0  0  0  0
  7  9  1  0  0  0  0
  7 10  1  0  0  0  0
 10 11  1  0  0  0  0
 10 12  1  0  0  0  0
 10 13  1  0  0  0  0
 13 14  1  0  0  0  0
 13 15  1  0  0  0  0
 13 16  1  0  0  0  0
 16 17  1  0  0  0  0
 16 18  1  0  0  0  0
 16 19  1  0  0  0  0
 19 20  1  0  0  0  0
 19 21  1  0  0  0  0
 19 22  1  0  0  0  0
  1 23  1  0  0  0  0
 23 24  1  0  0  0  0
 23 25  1  0  0  0  0
 23 26  1  0  0  0  0
M  END
> <VM2 Rank>
74

> <Conf_Id>
272

> <Probability>
0.30

> <Sum Probability>
93.30

> <Delta G>
1.894

> <G>
77.360

> <E>
44.397

> <-TS>
32.963

> <U+W>
22.936

> <U>
72.925

> <W>
-49.988

> <W(PB)>
-52.181

> <W(SA)>
2.192

> <Valence>
3.007

> <Coulomb>
69.583

> <VdW>
0.335

> <VdW6>
-8.608

> <VdW12>
8.943

> <Bond>
0.266

> <Angle>
1.183

> <Pdih>
1.559

> <Idih>
0.000

> <Tether>
0.000

$$$$
VeraChem MOL file


 26 25  0  0  0  0  0  0  0  0999 V2000     
   19.8404   19.2085   26.0727 N   0  3  0  0  0  0  0  0  0  0  0  0
   20.1682   18.3487   26.5392 H   0  0  0  0  0  0  0  0  0  0  0  0
   19.0874   19.5702   26.6793 H   0  0  0  0  0  0  0  0  0  0  0  0
   19.2750   18.8796   24.7015 C   0  0  0  0  0  0  0  0  0  0  0  0
   18.9852   19.8194   24.2256 H   0  0  0  0  0  0  0  0  0  0  0  0
   18.3717   18.2838   24.8552 H   0  0  0  0  0  0  0  0  0  0  0  0
   20.2388   18.1002   23.7820 C   0  0  0  0  0  0  0  0  0  0  0  0
   21.1492   18.6865   23.6073 H   0  0  0  0  0  0  0  0  0  0  0  0
   20.5575   17.1819   24.2924 H   0  0  0  0  0  0  0  0  0  0  0  0
   19.5923   17.7220   22.4264 C   0  0  0  0  0  0  0  0  0  0  0  0
   18.7588   17.0302   22.6109 H   0  0  0  0  0  0  0  0  0  0  0  0
   20.3187   17.1567   21.8275 H   0  0  0  0  0  0  0  0  0  0  0  0
   19.0633   18.9257   21.6002 C   0  0  0  0  0  0  0  0  0  0  0  0
   18.6502   18.5477   20.6549 H   0  0  0  0  0  0  0  0  0  0  0  0
   18.2173   19.3864   22.1277 H   0  0  0  0  0  0  0  0  0  0  0  0
   20.1134   20.0214   21.2847 C   0  0  0  0  0  0  0  0  0  0  0  0
   20.4643   20.4902   22.2138 H   0  0  0  0  0  0  0  0  0  0  0  0
   19.6237   20.8209   20.7114 H   0  0  0  0  0  0  0  0  0  0  0  0
   21.3216   19.4977   20.4755 C   0  0  0  0  0  0  0  0  0  0  0  0
   21.9082   18.7718   21.0521 H   0  0  0  0  0  0  0  0  0  0  0  0
   21.9915   20.3244   20.2059 H   0  0  0  0  0  0  0  0  0  0  0  0
   20.9941   19.0143   19.5460 H   0  0  0  0  0  0  0  0  0  0  0  0
   20.9633   20.2349   25.9740 C   0  0  0  0  0  0  0  0  0  0  0  0
   21.7830   19.8191   25.3846 H   0  0  0  0  0  0  0  0  0  0  0  0
   20.5820   21.1386   25.4937 H   0  0  0  0  0  0  0  0  0  0  0  0
   21.3184   20.4733   26.9790 H   0  0  0  0  0  0  0  0  0  0  0  0
  1  2  1  0  0  0  0
  1  3  1  0  0  0  0
  1  4  1  0  0  0  0
  4  5  1  0  0  0  0
  4  6  1  0  0  0  0
  4  7  1  0  0  0  0
  7  8  1  0  0  0  0
  7  9  1  0  0  0  0
  7 10  1  0  0  0  0
 10 11  1  0  0  0  0
 10 12  1  0  0  0  0
 10 13  1  0  0  0  0
 13 14  1  0  0  0  0
 13 15  1  0  0  0  0
 13 16  1  0  0  0  0
 16 17  1  0  0  0  0
 16 18  1  0  0  0  0
 16 19  1  0  0  0  0
 19 20  1  0  0  0  0
 19 21  1  0  0  0  0
 19 22  1  0  0  0  0
  1 23  1  0  0  0  0
 23 24  1  0  0  0  0
 23 25  1  0  0  0  0
 23 26  1  0  0  0  0
M  END
> <VM2 Rank>
75

> <Conf_Id>
1060

> <Probability>
0.29

> <Sum Probability>
93.60

> <Delta G>
1.900

> <G>
77.366

> <E>
44.359

> <-TS>
33.007

> <U+W>
22.897

> <U>
72.761

> <W>
-49.864

> <W(PB)>
-52.061

> <W(SA)>
2.196

> <Valence>
3.172

> <Coulomb>
69.298

> <VdW>
0.291

> <VdW6>
-8.615

> <VdW12>
8.906

> <Bond>
0.269

> <Angle>
1.270

> <Pdih>
1.633

> <Idih>
0.000

> <Tether>
0.000

$$$$
VeraChem MOL file


 26 25  0  0  0  0  0  0  0  0999 V2000     
   20.6780   18.9901   25.4037 N   0  3  0  0  0  0  0  0  0  0  0  0
   21.2854   19.0740   24.5747 H   0  0  0  0  0  0  0  0  0  0  0  0
   20.8726   18.0563   25.7971 H   0  0  0  0  0  0  0  0  0  0  0  0
   19.2226   19.0888   24.9904 C   0  0  0  0  0  0  0  0  0  0  0  0
   19.0552   20.0895   24.5851 H   0  0  0  0  0  0  0  0  0  0  0  0
   18.6140   18.9815   25.8919 H   0  0  0  0  0  0  0  0  0  0  0  0
   18.7951   18.0289   23.9540 C   0  0  0  0  0  0  0  0  0  0  0  0
   18.9158   17.0287   24.3908 H   0  0  0  0  0  0  0  0  0  0  0  0
   17.7221   18.1470   23.7529 H   0  0  0  0  0  0  0  0  0  0  0  0
   19.5769   18.1033   22.6182 C   0  0  0  0  0  0  0  0  0  0  0  0
   19.2065   17.3123   21.9516 H   0  0  0  0  0  0  0  0  0  0  0  0
   20.6353   17.8783   22.8000 H   0  0  0  0  0  0  0  0  0  0  0  0
   19.4360   19.4736   21.9079 C   0  0  0  0  0  0  0  0  0  0  0  0
   18.3693   19.7178   21.8090 H   0  0  0  0  0  0  0  0  0  0  0  0
   19.8794   20.2677   22.5234 H   0  0  0  0  0  0  0  0  0  0  0  0
   20.0799   19.5043   20.5008 C   0  0  0  0  0  0  0  0  0  0  0  0
   19.8439   20.4669   20.0258 H   0  0  0  0  0  0  0  0  0  0  0  0
   19.6260   18.7300   19.8666 H   0  0  0  0  0  0  0  0  0  0  0  0
   21.6150   19.3236   20.5243 C   0  0  0  0  0  0  0  0  0  0  0  0
   22.0910   20.0701   21.1732 H   0  0  0  0  0  0  0  0  0  0  0  0
   22.0309   19.4430   19.5155 H   0  0  0  0  0  0  0  0  0  0  0  0
   21.8986   18.3257   20.8809 H   0  0  0  0  0  0  0  0  0  0  0  0
   21.0044   20.0774   26.4177 C   0  0  0  0  0  0  0  0  0  0  0  0
   20.3699   19.9497   27.2975 H   0  0  0  0  0  0  0  0  0  0  0  0
   22.0549   19.9953   26.7055 H   0  0  0  0  0  0  0  0  0  0  0  0
   20.8204   21.0553   25.9675 H   0  0  0  0  0  0  0  0  0  0  0  0
  1  2  1  0  0  0  0
  1  3  1  0  0  0  0
  1  4  1  0  0  0  0
  4  5  1  0  0  0  0
  4  6  1  0  0  0  0
  4  7  1  0  0  0  0
  7  8  1  0  0  0  0
  7  9  1  0  0  0  0
  7 10  1  0  0  0  0
 10 11  1  0  0  0  0
 10 12  1  0  0  0  0
 10 13  1  0  0  0  0
 13 14  1  0  0  0  0
 13 15  1  0  0  0  0
 13 16  1  0  0  0  0
 16 17  1  0  0  0  0
 16 18  1  0  0  0  0
 16 19  1  0  0  0  0
 19 20  1  0  0  0  0
 19 21  1  0  0  0  0
 19 22  1  0  0  0  0
  1 23  1  0  0  0  0
 23 24  1  0  0  0  0
 23 25  1  0  0  0  0
 23 26  1  0  0  0  0
M  END
> <VM2 Rank>
76

> <Conf_Id>
132

> <Probability>
0.29

> <Sum Probability>
93.89

> <Delta G>
1.903

> <G>
77.369

> <E>
44.802

> <-TS>
32.567

> <U+W>
23.340

> <U>
72.649

> <W>
-49.309

> <W(PB)>
-51.569

> <W(SA)>
2.259

> <Valence>
2.608

> <Coulomb>
69.872

> <VdW>
0.169

> <VdW6>
-7.459

> <VdW12>
7.628

> <Bond>
0.205

> <Angle>
0.826

> <Pdih>
1.577

> <Idih>
0.000

> <Tether>
0.000

$$$$
VeraChem MOL file


 26 25  0  0  0  0  0  0  0  0999 V2000     
   19.7759   18.4162   25.5306 N   0  3  0  0  0  0  0  0  0  0  0  0
   20.3064   17.5759   25.2531 H   0  0  0  0  0  0  0  0  0  0  0  0
   18.8711   18.3470   25.0410 H   0  0  0  0  0  0  0  0  0  0  0  0
   20.5117   19.6669   25.0899 C   0  0  0  0  0  0  0  0  0  0  0  0
   21.4610   19.6989   25.6307 H   0  0  0  0  0  0  0  0  0  0  0  0
   19.9172   20.5325   25.3926 H   0  0  0  0  0  0  0  0  0  0  0  0
   20.7845   19.7294   23.5743 C   0  0  0  0  0  0  0  0  0  0  0  0
   21.4003   20.6148   23.3681 H   0  0  0  0  0  0  0  0  0  0  0  0
   21.3803   18.8561   23.2802 H   0  0  0  0  0  0  0  0  0  0  0  0
   19.4829   19.8037   22.7375 C   0  0  0  0  0  0  0  0  0  0  0  0
   18.8614   20.6266   23.1173 H   0  0  0  0  0  0  0  0  0  0  0  0
   18.8913   18.8896   22.8744 H   0  0  0  0  0  0  0  0  0  0  0  0
   19.7339   20.0397   21.2256 C   0  0  0  0  0  0  0  0  0  0  0  0
   18.7641   20.1187   20.7153 H   0  0  0  0  0  0  0  0  0  0  0  0
   20.2231   21.0145   21.0922 H   0  0  0  0  0  0  0  0  0  0  0  0
   20.5848   18.9533   20.5192 C   0  0  0  0  0  0  0  0  0  0  0  0
   21.6021   18.9390   20.9327 H   0  0  0  0  0  0  0  0  0  0  0  0
   20.6953   19.2294   19.4612 H   0  0  0  0  0  0  0  0  0  0  0  0
   19.9681   17.5384   20.6018 C   0  0  0  0  0  0  0  0  0  0  0  0
   18.9419   17.5317   20.2122 H   0  0  0  0  0  0  0  0  0  0  0  0
   19.9470   17.1681   21.6342 H   0  0  0  0  0  0  0  0  0  0  0  0
   20.5570   16.8271   20.0083 H   0  0  0  0  0  0  0  0  0  0  0  0
   19.5661   18.4424   27.0381 C   0  0  0  0  0  0  0  0  0  0  0  0
   20.5377   18.4844   27.5351 H   0  0  0  0  0  0  0  0  0  0  0  0
   18.9763   19.3226   27.3034 H   0  0  0  0  0  0  0  0  0  0  0  0
   19.0352   17.5373   27.3418 H   0  0  0  0  0  0  0  0  0  0  0  0
  1  2  1  0  0  0  0
  1  3  1  0  0  0  0
  1  4  1  0  0  0  0
  4  5  1  0  0  0  0
  4  6  1  0  0  0  0
  4  7  1  0  0  0  0
  7  8  1  0  0  0  0
  7  9  1  0  0  0  0
  7 10  1  0  0  0  0
 10 11  1  0  0  0  0
 10 12  1  0  0  0  0
 10 13  1  0  0  0  0
 13 14  1  0  0  0  0
 13 15  1  0  0  0  0
 13 16  1  0  0  0  0
 16 17  1  0  0  0  0
 16 18  1  0  0  0  0
 16 19  1  0  0  0  0
 19 20  1  0  0  0  0
 19 21  1  0  0  0  0
 19 22  1  0  0  0  0
  1 23  1  0  0  0  0
 23 24  1  0  0  0  0
 23 25  1  0  0  0  0
 23 26  1  0  0  0  0
M  END
> <VM2 Rank>
77

> <Conf_Id>
568

> <Probability>
0.28

> <Sum Probability>
94.17

> <Delta G>
1.921

> <G>
77.387

> <E>
44.700

> <-TS>
32.687

> <U+W>
23.238

> <U>
72.709

> <W>
-49.471

> <W(PB)>
-51.723

> <W(SA)>
2.252

> <Valence>
2.790

> <Coulomb>
69.679

> <VdW>
0.240

> <VdW6>
-7.473

> <VdW12>
7.714

> <Bond>
0.222

> <Angle>
1.030

> <Pdih>
1.538

> <Idih>
0.000

> <Tether>
0.000

$$$$
VeraChem MOL file


 26 25  0  0  0  0  0  0  0  0999 V2000     
   19.3076   18.8494   25.3551 N   0  3  0  0  0  0  0  0  0  0  0  0
   19.2794   17.8928   25.7408 H   0  0  0  0  0  0  0  0  0  0  0  0
   18.7554   18.8142   24.4851 H   0  0  0  0  0  0  0  0  0  0  0  0
   20.7380   19.2443   25.0441 C   0  0  0  0  0  0  0  0  0  0  0  0
   21.2910   19.2563   25.9867 H   0  0  0  0  0  0  0  0  0  0  0  0
   20.7268   20.2610   24.6443 H   0  0  0  0  0  0  0  0  0  0  0  0
   21.4431   18.3007   24.0478 C   0  0  0  0  0  0  0  0  0  0  0  0
   22.4813   18.6355   23.9214 H   0  0  0  0  0  0  0  0  0  0  0  0
   21.4976   17.2937   24.4823 H   0  0  0  0  0  0  0  0  0  0  0  0
   20.7580   18.2245   22.6601 C   0  0  0  0  0  0  0  0  0  0  0  0
   19.7571   17.7881   22.7689 H   0  0  0  0  0  0  0  0  0  0  0  0
   21.3269   17.5299   22.0268 H   0  0  0  0  0  0  0  0  0  0  0  0
   20.6673   19.5999   21.9515 C   0  0  0  0  0  0  0  0  0  0  0  0
   20.0300   20.2832   22.5287 H   0  0  0  0  0  0  0  0  0  0  0  0
   21.6665   20.0562   21.9257 H   0  0  0  0  0  0  0  0  0  0  0  0
   20.1306   19.5094   20.5026 C   0  0  0  0  0  0  0  0  0  0  0  0
   20.7754   18.8478   19.9073 H   0  0  0  0  0  0  0  0  0  0  0  0
   20.1992   20.5033   20.0384 H   0  0  0  0  0  0  0  0  0  0  0  0
   18.6663   19.0211   20.4199 C   0  0  0  0  0  0  0  0  0  0  0  0
   18.5667   17.9839   20.7631 H   0  0  0  0  0  0  0  0  0  0  0  0
   18.3065   19.0607   19.3836 H   0  0  0  0  0  0  0  0  0  0  0  0
   18.0046   19.6509   21.0285 H   0  0  0  0  0  0  0  0  0  0  0  0
   18.6972   19.8406   26.3359 C   0  0  0  0  0  0  0  0  0  0  0  0
   18.7100   20.8387   25.8926 H   0  0  0  0  0  0  0  0  0  0  0  0
   17.6676   19.5451   26.5499 H   0  0  0  0  0  0  0  0  0  0  0  0
   19.2811   19.8380   27.2589 H   0  0  0  0  0  0  0  0  0  0  0  0
  1  2  1  0  0  0  0
  1  3  1  0  0  0  0
  1  4  1  0  0  0  0
  4  5  1  0  0  0  0
  4  6  1  0  0  0  0
  4  7  1  0  0  0  0
  7  8  1  0  0  0  0
  7  9  1  0  0  0  0
  7 10  1  0  0  0  0
 10 11  1  0  0  0  0
 10 12  1  0  0  0  0
 10 13  1  0  0  0  0
 13 14  1  0  0  0  0
 13 15  1  0  0  0  0
 13 16  1  0  0  0  0
 16 17  1  0  0  0  0
 16 18  1  0  0  0  0
 16 19  1  0  0  0  0
 19 20  1  0  0  0  0
 19 21  1  0  0  0  0
 19 22  1  0  0  0  0
  1 23  1  0  0  0  0
 23 24  1  0  0  0  0
 23 25  1  0  0  0  0
 23 26  1  0  0  0  0
M  END
> <VM2 Rank>
78

> <Conf_Id>
65

> <Probability>
0.27

> <Sum Probability>
94.45

> <Delta G>
1.942

> <G>
77.408

> <E>
44.840

> <-TS>
32.567

> <U+W>
23.378

> <U>
72.649

> <W>
-49.271

> <W(PB)>
-51.523

> <W(SA)>
2.252

> <Valence>
2.608

> <Coulomb>
69.872

> <VdW>
0.169

> <VdW6>
-7.459

> <VdW12>
7.628

> <Bond>
0.205

> <Angle>
0.826

> <Pdih>
1.577

> <Idih>
0.000

> <Tether>
0.000

$$$$
VeraChem MOL file


 26 25  0  0  0  0  0  0  0  0999 V2000     
   20.1255   18.9649   26.4276 N   0  3  0  0  0  0  0  0  0  0  0  0
   20.8154   18.2099   26.5631 H   0  0  0  0  0  0  0  0  0  0  0  0
   19.6839   19.0854   27.3529 H   0  0  0  0  0  0  0  0  0  0  0  0
   19.0653   18.5337   25.4231 C   0  0  0  0  0  0  0  0  0  0  0  0
   18.3603   19.3574   25.2864 H   0  0  0  0  0  0  0  0  0  0  0  0
   18.5232   17.7079   25.8911 H   0  0  0  0  0  0  0  0  0  0  0  0
   19.5893   18.0470   24.0533 C   0  0  0  0  0  0  0  0  0  0  0  0
   20.5558   17.5413   24.1791 H   0  0  0  0  0  0  0  0  0  0  0  0
   18.8909   17.2879   23.6768 H   0  0  0  0  0  0  0  0  0  0  0  0
   19.6969   19.1758   22.9996 C   0  0  0  0  0  0  0  0  0  0  0  0
   20.4040   19.9441   23.3333 H   0  0  0  0  0  0  0  0  0  0  0  0
   18.7210   19.6700   22.8950 H   0  0  0  0  0  0  0  0  0  0  0  0
   20.1500   18.6350   21.6242 C   0  0  0  0  0  0  0  0  0  0  0  0
   21.1244   18.1377   21.7282 H   0  0  0  0  0  0  0  0  0  0  0  0
   19.4398   17.8721   21.2763 H   0  0  0  0  0  0  0  0  0  0  0  0
   20.2556   19.7587   20.5690 C   0  0  0  0  0  0  0  0  0  0  0  0
   20.9675   20.5232   20.9106 H   0  0  0  0  0  0  0  0  0  0  0  0
   19.2827   20.2582   20.4600 H   0  0  0  0  0  0  0  0  0  0  0  0
   20.7081   19.2147   19.1971 C   0  0  0  0  0  0  0  0  0  0  0  0
   20.7772   20.0268   18.4616 H   0  0  0  0  0  0  0  0  0  0  0  0
   19.9970   18.4720   18.8126 H   0  0  0  0  0  0  0  0  0  0  0  0
   21.6950   18.7389   19.2669 H   0  0  0  0  0  0  0  0  0  0  0  0
   20.8173   20.2602   26.0230 C   0  0  0  0  0  0  0  0  0  0  0  0
   21.4839   20.5744   26.8292 H   0  0  0  0  0  0  0  0  0  0  0  0
   21.4000   20.0891   25.1165 H   0  0  0  0  0  0  0  0  0  0  0  0
   20.0640   21.0308   25.8455 H   0  0  0  0  0  0  0  0  0  0  0  0
  1  2  1  0  0  0  0
  1  3  1  0  0  0  0
  1  4  1  0  0  0  0
  4  5  1  0  0  0  0
  4  6  1  0  0  0  0
  4  7  1  0  0  0  0
  7  8  1  0  0  0  0
  7  9  1  0  0  0  0
  7 10  1  0  0  0  0
 10 11  1  0  0  0  0
 10 12  1  0  0  0  0
 10 13  1  0  0  0  0
 13 14  1  0  0  0  0
 13 15  1  0  0  0  0
 13 16  1  0  0  0  0
 16 17  1  0  0  0  0
 16 18  1  0  0  0  0
 16 19  1  0  0  0  0
 19 20  1  0  0  0  0
 19 21  1  0  0  0  0
 19 22  1  0  0  0  0
  1 23  1  0  0  0  0
 23 24  1  0  0  0  0
 23 25  1  0  0  0  0
 23 26  1  0  0  0  0
M  END
> <VM2 Rank>
79

> <Conf_Id>
818

> <Probability>
0.27

> <Sum Probability>
94.72

> <Delta G>
1.943

> <G>
77.409

> <E>
45.185

> <-TS>
32.224

> <U+W>
23.723

> <U>
72.994

> <W>
-49.271

> <W(PB)>
-51.555

> <W(SA)>
2.284

> <Valence>
3.858

> <Coulomb>
68.737

> <VdW>
0.399

> <VdW6>
-6.842

> <VdW12>
7.241

> <Bond>
0.196

> <Angle>
0.972

> <Pdih>
2.691

> <Idih>
0.000

> <Tether>
0.000

$$$$
VeraChem MOL file


 26 25  0  0  0  0  0  0  0  0999 V2000     
   20.2940   18.4685   25.5488 N   0  3  0  0  0  0  0  0  0  0  0  0
   21.2263   18.5847   25.1243 H   0  0  0  0  0  0  0  0  0  0  0  0
   19.9626   17.5412   25.2408 H   0  0  0  0  0  0  0  0  0  0  0  0
   19.3560   19.5503   25.0490 C   0  0  0  0  0  0  0  0  0  0  0  0
   19.7432   20.5149   25.3865 H   0  0  0  0  0  0  0  0  0  0  0  0
   18.3840   19.3884   25.5217 H   0  0  0  0  0  0  0  0  0  0  0  0
   19.1831   19.5679   23.5176 C   0  0  0  0  0  0  0  0  0  0  0  0
   18.7957   18.5954   23.1885 H   0  0  0  0  0  0  0  0  0  0  0  0
   18.4190   20.3141   23.2626 H   0  0  0  0  0  0  0  0  0  0  0  0
   20.4991   19.9064   22.7735 C   0  0  0  0  0  0  0  0  0  0  0  0
   21.2502   19.1279   22.9581 H   0  0  0  0  0  0  0  0  0  0  0  0
   20.9156   20.8341   23.1901 H   0  0  0  0  0  0  0  0  0  0  0  0
   20.3127   20.0981   21.2461 C   0  0  0  0  0  0  0  0  0  0  0  0
   19.6493   20.9565   21.0717 H   0  0  0  0  0  0  0  0  0  0  0  0
   21.2805   20.3728   20.8045 H   0  0  0  0  0  0  0  0  0  0  0  0
   19.7477   18.8686   20.4896 C   0  0  0  0  0  0  0  0  0  0  0  0
   19.6586   19.1246   19.4245 H   0  0  0  0  0  0  0  0  0  0  0  0
   18.7273   18.6485   20.8308 H   0  0  0  0  0  0  0  0  0  0  0  0
   20.6272   17.6049   20.6252 C   0  0  0  0  0  0  0  0  0  0  0  0
   21.6588   17.8061   20.3086 H   0  0  0  0  0  0  0  0  0  0  0  0
   20.2353   16.7945   19.9970 H   0  0  0  0  0  0  0  0  0  0  0  0
   20.6495   17.2391   21.6592 H   0  0  0  0  0  0  0  0  0  0  0  0
   20.3883   18.5252   27.0671 C   0  0  0  0  0  0  0  0  0  0  0  0
   21.0665   17.7422   27.4136 H   0  0  0  0  0  0  0  0  0  0  0  0
   20.7705   19.5035   27.3669 H   0  0  0  0  0  0  0  0  0  0  0  0
   19.3954   18.3689   27.4946 H   0  0  0  0  0  0  0  0  0  0  0  0
  1  2  1  0  0  0  0
  1  3  1  0  0  0  0
  1  4  1  0  0  0  0
  4  5  1  0  0  0  0
  4  6  1  0  0  0  0
  4  7  1  0  0  0  0
  7  8  1  0  0  0  0
  7  9  1  0  0  0  0
  7 10  1  0  0  0  0
 10 11  1  0  0  0  0
 10 12  1  0  0  0  0
 10 13  1  0  0  0  0
 13 14  1  0  0  0  0
 13 15  1  0  0  0  0
 13 16  1  0  0  0  0
 16 17  1  0  0  0  0
 16 18  1  0  0  0  0
 16 19  1  0  0  0  0
 19 20  1  0  0  0  0
 19 21  1  0  0  0  0
 19 22  1  0  0  0  0
  1 23  1  0  0  0  0
 23 24  1  0  0  0  0
 23 25  1  0  0  0  0
 23 26  1  0  0  0  0
M  END
> <VM2 Rank>
80

> <Conf_Id>
1369

> <Probability>
0.26

> <Sum Probability>
94.98

> <Delta G>
1.963

> <G>
77.429

> <E>
44.743

> <-TS>
32.686

> <U+W>
23.281

> <U>
72.710

> <W>
-49.429

> <W(PB)>
-51.677

> <W(SA)>
2.249

> <Valence>
2.790

> <Coulomb>
69.679

> <VdW>
0.240

> <VdW6>
-7.473

> <VdW12>
7.714

> <Bond>
0.222

> <Angle>
1.030

> <Pdih>
1.538

> <Idih>
0.000

> <Tether>
0.000

$$$$
VeraChem MOL file


 26 25  0  0  0  0  0  0  0  0999 V2000     
   20.1778   18.5100   26.0021 N   0  3  0  0  0  0  0  0  0  0  0  0
   21.1128   18.2714   25.6395 H   0  0  0  0  0  0  0  0  0  0  0  0
   19.9880   17.8087   26.7355 H   0  0  0  0  0  0  0  0  0  0  0  0
   19.1402   18.3842   24.8973 C   0  0  0  0  0  0  0  0  0  0  0  0
   18.1708   18.6543   25.3237 H   0  0  0  0  0  0  0  0  0  0  0  0
   19.0976   17.3312   24.6076 H   0  0  0  0  0  0  0  0  0  0  0  0
   19.4057   19.2400   23.6391 C   0  0  0  0  0  0  0  0  0  0  0  0
   18.5649   19.0928   22.9501 H   0  0  0  0  0  0  0  0  0  0  0  0
   19.4060   20.3047   23.9054 H   0  0  0  0  0  0  0  0  0  0  0  0
   20.7331   18.8696   22.9312 C   0  0  0  0  0  0  0  0  0  0  0  0
   20.7204   17.8083   22.6496 H   0  0  0  0  0  0  0  0  0  0  0  0
   21.5660   18.9855   23.6370 H   0  0  0  0  0  0  0  0  0  0  0  0
   21.0371   19.7440   21.6869 C   0  0  0  0  0  0  0  0  0  0  0  0
   21.1518   20.7896   22.0045 H   0  0  0  0  0  0  0  0  0  0  0  0
   22.0127   19.4464   21.2782 H   0  0  0  0  0  0  0  0  0  0  0  0
   19.9809   19.6795   20.5538 C   0  0  0  0  0  0  0  0  0  0  0  0
   20.3098   20.3316   19.7326 H   0  0  0  0  0  0  0  0  0  0  0  0
   19.0252   20.0947   20.9004 H   0  0  0  0  0  0  0  0  0  0  0  0
   19.7602   18.2541   19.9984 C   0  0  0  0  0  0  0  0  0  0  0  0
   19.3178   17.5922   20.7532 H   0  0  0  0  0  0  0  0  0  0  0  0
   20.7064   17.8102   19.6631 H   0  0  0  0  0  0  0  0  0  0  0  0
   19.0773   18.2776   19.1393 H   0  0  0  0  0  0  0  0  0  0  0  0
   20.1730   19.9087   26.6082 C   0  0  0  0  0  0  0  0  0  0  0  0
   19.1767   20.1270   26.9986 H   0  0  0  0  0  0  0  0  0  0  0  0
   20.9039   19.9493   27.4189 H   0  0  0  0  0  0  0  0  0  0  0  0
   20.4377   20.6365   25.8386 H   0  0  0  0  0  0  0  0  0  0  0  0
  1  2  1  0  0  0  0
  1  3  1  0  0  0  0
  1  4  1  0  0  0  0
  4  5  1  0  0  0  0
  4  6  1  0  0  0  0
  4  7  1  0  0  0  0
  7  8  1  0  0  0  0
  7  9  1  0  0  0  0
  7 10  1  0  0  0  0
 10 11  1  0  0  0  0
 10 12  1  0  0  0  0
 10 13  1  0  0  0  0
 13 14  1  0  0  0  0
 13 15  1  0  0  0  0
 13 16  1  0  0  0  0
 16 17  1  0  0  0  0
 16 18  1  0  0  0  0
 16 19  1  0  0  0  0
 19 20  1  0  0  0  0
 19 21  1  0  0  0  0
 19 22  1  0  0  0  0
  1 23  1  0  0  0  0
 23 24  1  0  0  0  0
 23 25  1  0  0  0  0
 23 26  1  0  0  0  0
M  END
> <VM2 Rank>
81

> <Conf_Id>
205

> <Probability>
0.26

> <Sum Probability>
95.24

> <Delta G>
1.982

> <G>
77.448

> <E>
44.560

> <-TS>
32.888

> <U+W>
23.098

> <U>
72.739

> <W>
-49.641

> <W(PB)>
-51.847

> <W(SA)>
2.206

> <Valence>
3.076

> <Coulomb>
69.128

> <VdW>
0.535

> <VdW6>
-8.276

> <VdW12>
8.811

> <Bond>
0.270

> <Angle>
1.277

> <Pdih>
1.529

> <Idih>
0.000

> <Tether>
0.000

$$$$
VeraChem MOL file


 26 25  0  0  0  0  0  0  0  0999 V2000     
   19.8510   18.4766   25.9905 N   0  3  0  0  0  0  0  0  0  0  0  0
   20.1267   17.8229   26.7405 H   0  0  0  0  0  0  0  0  0  0  0  0
   19.0112   18.0567   25.5650 H   0  0  0  0  0  0  0  0  0  0  0  0
   20.9675   18.5709   24.9620 C   0  0  0  0  0  0  0  0  0  0  0  0
   21.2419   17.5502   24.6835 H   0  0  0  0  0  0  0  0  0  0  0  0
   21.8301   19.0281   25.4533 H   0  0  0  0  0  0  0  0  0  0  0  0
   20.6234   19.3643   23.6822 C   0  0  0  0  0  0  0  0  0  0  0  0
   20.3896   20.4051   23.9402 H   0  0  0  0  0  0  0  0  0  0  0  0
   21.5227   19.3948   23.0548 H   0  0  0  0  0  0  0  0  0  0  0  0
   19.4509   18.7387   22.8858 C   0  0  0  0  0  0  0  0  0  0  0  0
   18.5644   18.6791   23.5308 H   0  0  0  0  0  0  0  0  0  0  0  0
   19.6972   17.7038   22.6135 H   0  0  0  0  0  0  0  0  0  0  0  0
   19.0645   19.5426   21.6170 C   0  0  0  0  0  0  0  0  0  0  0  0
   18.2002   19.0571   21.1432 H   0  0  0  0  0  0  0  0  0  0  0  0
   18.7191   20.5411   21.9183 H   0  0  0  0  0  0  0  0  0  0  0  0
   20.1887   19.7007   20.5612 C   0  0  0  0  0  0  0  0  0  0  0  0
   21.0142   20.2980   20.9708 H   0  0  0  0  0  0  0  0  0  0  0  0
   19.7933   20.2787   19.7143 H   0  0  0  0  0  0  0  0  0  0  0  0
   20.7312   18.3532   20.0329 C   0  0  0  0  0  0  0  0  0  0  0  0
   19.9199   17.7297   19.6354 H   0  0  0  0  0  0  0  0  0  0  0  0
   21.2441   17.7890   20.8217 H   0  0  0  0  0  0  0  0  0  0  0  0
   21.4537   18.5203   19.2236 H   0  0  0  0  0  0  0  0  0  0  0  0
   19.5308   19.8431   26.5854 C   0  0  0  0  0  0  0  0  0  0  0  0
   19.1791   20.5079   25.7938 H   0  0  0  0  0  0  0  0  0  0  0  0
   18.7518   19.7295   27.3426 H   0  0  0  0  0  0  0  0  0  0  0  0
   20.4327   20.2553   27.0430 H   0  0  0  0  0  0  0  0  0  0  0  0
  1  2  1  0  0  0  0
  1  3  1  0  0  0  0
  1  4  1  0  0  0  0
  4  5  1  0  0  0  0
  4  6  1  0  0  0  0
  4  7  1  0  0  0  0
  7  8  1  0  0  0  0
  7  9  1  0  0  0  0
  7 10  1  0  0  0  0
 10 11  1  0  0  0  0
 10 12  1  0  0  0  0
 10 13  1  0  0  0  0
 13 14  1  0  0  0  0
 13 15  1  0  0  0  0
 13 16  1  0  0  0  0
 16 17  1  0  0  0  0
 16 18  1  0  0  0  0
 16 19  1  0  0  0  0
 19 20  1  0  0  0  0
 19 21  1  0  0  0  0
 19 22  1  0  0  0  0
  1 23  1  0  0  0  0
 23 24  1  0  0  0  0
 23 25  1  0  0  0  0
 23 26  1  0  0  0  0
M  END
> <VM2 Rank>
82

> <Conf_Id>
1008

> <Probability>
0.25

> <Sum Probability>
95.49

> <Delta G>
1.998

> <G>
77.464

> <E>
44.576

> <-TS>
32.888

> <U+W>
23.114

> <U>
72.739

> <W>
-49.625

> <W(PB)>
-51.868

> <W(SA)>
2.243

> <Valence>
3.076

> <Coulomb>
69.128

> <VdW>
0.535

> <VdW6>
-8.276

> <VdW12>
8.811

> <Bond>
0.270

> <Angle>
1.278

> <Pdih>
1.529

> <Idih>
0.000

> <Tether>
0.000

$$$$
VeraChem MOL file


 26 25  0  0  0  0  0  0  0  0999 V2000     
   20.0443   18.2296   25.4993 N   0  3  0  0  0  0  0  0  0  0  0  0
   20.5306   17.3709   25.8023 H   0  0  0  0  0  0  0  0  0  0  0  0
   19.2221   17.9025   24.9705 H   0  0  0  0  0  0  0  0  0  0  0  0
   20.9564   19.0400   24.5922 C   0  0  0  0  0  0  0  0  0  0  0  0
   21.3497   18.3602   23.8323 H   0  0  0  0  0  0  0  0  0  0  0  0
   21.7974   19.3914   25.1953 H   0  0  0  0  0  0  0  0  0  0  0  0
   20.2828   20.2415   23.8920 C   0  0  0  0  0  0  0  0  0  0  0  0
   19.9608   20.9701   24.6470 H   0  0  0  0  0  0  0  0  0  0  0  0
   21.0339   20.7609   23.2835 H   0  0  0  0  0  0  0  0  0  0  0  0
   19.0692   19.8553   23.0062 C   0  0  0  0  0  0  0  0  0  0  0  0
   18.6834   20.7618   22.5197 H   0  0  0  0  0  0  0  0  0  0  0  0
   18.2543   19.4942   23.6479 H   0  0  0  0  0  0  0  0  0  0  0  0
   19.3655   18.7865   21.9222 C   0  0  0  0  0  0  0  0  0  0  0  0
   19.6647   17.8417   22.3951 H   0  0  0  0  0  0  0  0  0  0  0  0
   18.4322   18.5723   21.3832 H   0  0  0  0  0  0  0  0  0  0  0  0
   20.4445   19.2226   20.9030 C   0  0  0  0  0  0  0  0  0  0  0  0
   21.4062   19.3748   21.4109 H   0  0  0  0  0  0  0  0  0  0  0  0
   20.1643   20.1865   20.4557 H   0  0  0  0  0  0  0  0  0  0  0  0
   20.6292   18.1740   19.7854 C   0  0  0  0  0  0  0  0  0  0  0  0
   19.6963   18.0232   19.2267 H   0  0  0  0  0  0  0  0  0  0  0  0
   20.9397   17.2060   20.1998 H   0  0  0  0  0  0  0  0  0  0  0  0
   21.3992   18.4980   19.0733 H   0  0  0  0  0  0  0  0  0  0  0  0
   19.6161   19.0406   26.7167 C   0  0  0  0  0  0  0  0  0  0  0  0
   20.5047   19.3592   27.2659 H   0  0  0  0  0  0  0  0  0  0  0  0
   19.0504   19.9146   26.3874 H   0  0  0  0  0  0  0  0  0  0  0  0
   18.9893   18.4178   27.3587 H   0  0  0  0  0  0  0  0  0  0  0  0
  1  2  1  0  0  0  0
  1  3  1  0  0  0  0
  1  4  1  0  0  0  0
  4  5  1  0  0  0  0
  4  6  1  0  0  0  0
  4  7  1  0  0  0  0
  7  8  1  0  0  0  0
  7  9  1  0  0  0  0
  7 10  1  0  0  0  0
 10 11  1  0  0  0  0
 10 12  1  0  0  0  0
 10 13  1  0  0  0  0
 13 14  1  0  0  0  0
 13 15  1  0  0  0  0
 13 16  1  0  0  0  0
 16 17  1  0  0  0  0
 16 18  1  0  0  0  0
 16 19  1  0  0  0  0
 19 20  1  0  0  0  0
 19 21  1  0  0  0  0
 19 22  1  0  0  0  0
  1 23  1  0  0  0  0
 23 24  1  0  0  0  0
 23 25  1  0  0  0  0
 23 26  1  0  0  0  0
M  END
> <VM2 Rank>
83

> <Conf_Id>
1104

> <Probability>
0.24

> <Sum Probability>
95.73

> <Delta G>
2.013

> <G>
77.479

> <E>
44.553

> <-TS>
32.926

> <U+W>
23.091

> <U>
72.939

> <W>
-49.849

> <W(PB)>
-52.092

> <W(SA)>
2.244

> <Valence>
2.864

> <Coulomb>
69.814

> <VdW>
0.261

> <VdW6>
-8.512

> <VdW12>
8.773

> <Bond>
0.254

> <Angle>
1.080

> <Pdih>
1.530

> <Idih>
0.000

> <Tether>
0.000

$$$$
VeraChem MOL file


 26 25  0  0  0  0  0  0  0  0999 V2000     
   20.0727   18.2325   25.5003 N   0  3  0  0  0  0  0  0  0  0  0  0
   20.9788   18.0813   25.0328 H   0  0  0  0  0  0  0  0  0  0  0  0
   19.7490   17.2914   25.7747 H   0  0  0  0  0  0  0  0  0  0  0  0
   19.0819   18.8491   24.5258 C   0  0  0  0  0  0  0  0  0  0  0  0
   18.1473   19.0199   25.0659 H   0  0  0  0  0  0  0  0  0  0  0  0
   18.8877   18.1096   23.7450 H   0  0  0  0  0  0  0  0  0  0  0  0
   19.5473   20.1666   23.8659 C   0  0  0  0  0  0  0  0  0  0  0  0
   18.7516   20.5285   23.2026 H   0  0  0  0  0  0  0  0  0  0  0  0
   19.6624   20.9397   24.6364 H   0  0  0  0  0  0  0  0  0  0  0  0
   20.8728   20.0389   23.0701 C   0  0  0  0  0  0  0  0  0  0  0  0
   21.6968   19.8445   23.7699 H   0  0  0  0  0  0  0  0  0  0  0  0
   21.1015   21.0079   22.6054 H   0  0  0  0  0  0  0  0  0  0  0  0
   20.8744   18.9400   21.9757 C   0  0  0  0  0  0  0  0  0  0  0  0
   21.8671   18.9218   21.5050 H   0  0  0  0  0  0  0  0  0  0  0  0
   20.7390   17.9511   22.4331 H   0  0  0  0  0  0  0  0  0  0  0  0
   19.8038   19.1574   20.8803 C   0  0  0  0  0  0  0  0  0  0  0  0
   19.9150   20.1611   20.4468 H   0  0  0  0  0  0  0  0  0  0  0  0
   18.7980   19.1094   21.3185 H   0  0  0  0  0  0  0  0  0  0  0  0
   19.9126   18.1011   19.7600 C   0  0  0  0  0  0  0  0  0  0  0  0
   19.1450   18.2686   18.9934 H   0  0  0  0  0  0  0  0  0  0  0  0
   19.7750   17.0874   20.1585 H   0  0  0  0  0  0  0  0  0  0  0  0
   20.8935   18.1451   19.2691 H   0  0  0  0  0  0  0  0  0  0  0  0
   20.2425   19.1044   26.7389 C   0  0  0  0  0  0  0  0  0  0  0  0
   20.9353   18.6159   27.4277 H   0  0  0  0  0  0  0  0  0  0  0  0
   20.6423   20.0766   26.4438 H   0  0  0  0  0  0  0  0  0  0  0  0
   19.2717   19.2338   27.2223 H   0  0  0  0  0  0  0  0  0  0  0  0
  1  2  1  0  0  0  0
  1  3  1  0  0  0  0
  1  4  1  0  0  0  0
  4  5  1  0  0  0  0
  4  6  1  0  0  0  0
  4  7  1  0  0  0  0
  7  8  1  0  0  0  0
  7  9  1  0  0  0  0
  7 10  1  0  0  0  0
 10 11  1  0  0  0  0
 10 12  1  0  0  0  0
 10 13  1  0  0  0  0
 13 14  1  0  0  0  0
 13 15  1  0  0  0  0
 13 16  1  0  0  0  0
 16 17  1  0  0  0  0
 16 18  1  0  0  0  0
 16 19  1  0  0  0  0
 19 20  1  0  0  0  0
 19 21  1  0  0  0  0
 19 22  1  0  0  0  0
  1 23  1  0  0  0  0
 23 24  1  0  0  0  0
 23 25  1  0  0  0  0
 23 26  1  0  0  0  0
M  END
> <VM2 Rank>
84

> <Conf_Id>
821

> <Probability>
0.24

> <Sum Probability>
95.97

> <Delta G>
2.020

> <G>
77.486

> <E>
44.561

> <-TS>
32.926

> <U+W>
23.099

> <U>
72.939

> <W>
-49.840

> <W(PB)>
-52.063

> <W(SA)>
2.222

> <Valence>
2.864

> <Coulomb>
69.814

> <VdW>
0.262

> <VdW6>
-8.512

> <VdW12>
8.773

> <Bond>
0.254

> <Angle>
1.080

> <Pdih>
1.530

> <Idih>
0.000

> <Tether>
0.000

$$$$
VeraChem MOL file


 26 25  0  0  0  0  0  0  0  0999 V2000     
   20.6249   19.6437   25.5880 N   0  3  0  0  0  0  0  0  0  0  0  0
   20.7351   20.3048   24.8048 H   0  0  0  0  0  0  0  0  0  0  0  0
   21.4970   19.7241   26.1345 H   0  0  0  0  0  0  0  0  0  0  0  0
   20.4852   18.2264   25.0554 C   0  0  0  0  0  0  0  0  0  0  0  0
   20.3520   17.5615   25.9125 H   0  0  0  0  0  0  0  0  0  0  0  0
   21.4299   17.9642   24.5732 H   0  0  0  0  0  0  0  0  0  0  0  0
   19.3292   18.0135   24.0516 C   0  0  0  0  0  0  0  0  0  0  0  0
   19.3313   16.9629   23.7326 H   0  0  0  0  0  0  0  0  0  0  0  0
   18.3706   18.1709   24.5627 H   0  0  0  0  0  0  0  0  0  0  0  0
   19.3974   18.9266   22.8015 C   0  0  0  0  0  0  0  0  0  0  0  0
   19.3158   19.9792   23.1037 H   0  0  0  0  0  0  0  0  0  0  0  0
   18.5168   18.7186   22.1802 H   0  0  0  0  0  0  0  0  0  0  0  0
   20.6842   18.7183   21.9627 C   0  0  0  0  0  0  0  0  0  0  0  0
   21.5668   18.8969   22.5908 H   0  0  0  0  0  0  0  0  0  0  0  0
   20.7462   17.6716   21.6342 H   0  0  0  0  0  0  0  0  0  0  0  0
   20.7745   19.6517   20.7310 C   0  0  0  0  0  0  0  0  0  0  0  0
   21.7598   19.5207   20.2620 H   0  0  0  0  0  0  0  0  0  0  0  0
   20.7261   20.7008   21.0545 H   0  0  0  0  0  0  0  0  0  0  0  0
   19.6813   19.3831   19.6716 C   0  0  0  0  0  0  0  0  0  0  0  0
   18.6811   19.6224   20.0531 H   0  0  0  0  0  0  0  0  0  0  0  0
   19.6871   18.3319   19.3554 H   0  0  0  0  0  0  0  0  0  0  0  0
   19.8499   20.0018   18.7807 H   0  0  0  0  0  0  0  0  0  0  0  0
   19.4314   20.0267   26.4553 C   0  0  0  0  0  0  0  0  0  0  0  0
   18.5221   19.9963   25.8515 H   0  0  0  0  0  0  0  0  0  0  0  0
   19.3497   19.3209   27.2847 H   0  0  0  0  0  0  0  0  0  0  0  0
   19.5811   21.0366   26.8436 H   0  0  0  0  0  0  0  0  0  0  0  0
  1  2  1  0  0  0  0
  1  3  1  0  0  0  0
  1  4  1  0  0  0  0
  4  5  1  0  0  0  0
  4  6  1  0  0  0  0
  4  7  1  0  0  0  0
  7  8  1  0  0  0  0
  7  9  1  0  0  0  0
  7 10  1  0  0  0  0
 10 11  1  0  0  0  0
 10 12  1  0  0  0  0
 10 13  1  0  0  0  0
 13 14  1  0  0  0  0
 13 15  1  0  0  0  0
 13 16  1  0  0  0  0
 16 17  1  0  0  0  0
 16 18  1  0  0  0  0
 16 19  1  0  0  0  0
 19 20  1  0  0  0  0
 19 21  1  0  0  0  0
 19 22  1  0  0  0  0
  1 23  1  0  0  0  0
 23 24  1  0  0  0  0
 23 25  1  0  0  0  0
 23 26  1  0  0  0  0
M  END
> <VM2 Rank>
85

> <Conf_Id>
402

> <Probability>
0.22

> <Sum Probability>
96.20

> <Delta G>
2.068

> <G>
77.534

> <E>
44.758

> <-TS>
32.776

> <U+W>
23.296

> <U>
73.042

> <W>
-49.745

> <W(PB)>
-51.969

> <W(SA)>
2.224

> <Valence>
2.938

> <Coulomb>
69.625

> <VdW>
0.478

> <VdW6>
-8.182

> <VdW12>
8.660

> <Bond>
0.253

> <Angle>
1.038

> <Pdih>
1.647

> <Idih>
0.000

> <Tether>
0.000

$$$$
VeraChem MOL file


 26 25  0  0  0  0  0  0  0  0999 V2000     
   19.2140   19.4989   25.5382 N   0  3  0  0  0  0  0  0  0  0  0  0
   18.3076   19.3968   26.0216 H   0  0  0  0  0  0  0  0  0  0  0  0
   19.0272   20.1297   24.7445 H   0  0  0  0  0  0  0  0  0  0  0  0
   19.6752   18.1434   25.0267 C   0  0  0  0  0  0  0  0  0  0  0  0
   18.8394   17.6985   24.4814 H   0  0  0  0  0  0  0  0  0  0  0  0
   19.8801   17.5131   25.8957 H   0  0  0  0  0  0  0  0  0  0  0  0
   20.9178   18.1766   24.1078 C   0  0  0  0  0  0  0  0  0  0  0  0
   21.7863   18.5216   24.6836 H   0  0  0  0  0  0  0  0  0  0  0  0
   21.1511   17.1497   23.7970 H   0  0  0  0  0  0  0  0  0  0  0  0
   20.7533   19.0659   22.8494 C   0  0  0  0  0  0  0  0  0  0  0  0
   21.6992   19.0453   22.2928 H   0  0  0  0  0  0  0  0  0  0  0  0
   20.5983   20.1109   23.1491 H   0  0  0  0  0  0  0  0  0  0  0  0
   19.5975   18.6068   21.9242 C   0  0  0  0  0  0  0  0  0  0  0  0
   19.7723   17.5717   21.5997 H   0  0  0  0  0  0  0  0  0  0  0  0
   18.6553   18.5982   22.4876 H   0  0  0  0  0  0  0  0  0  0  0  0
   19.4062   19.5112   20.6824 C   0  0  0  0  0  0  0  0  0  0  0  0
   19.2181   20.5461   21.0010 H   0  0  0  0  0  0  0  0  0  0  0  0
   18.5033   19.1865   20.1466 H   0  0  0  0  0  0  0  0  0  0  0  0
   20.6026   19.4775   19.7041 C   0  0  0  0  0  0  0  0  0  0  0  0
   21.5043   19.9119   20.1529 H   0  0  0  0  0  0  0  0  0  0  0  0
   20.3748   20.0556   18.7991 H   0  0  0  0  0  0  0  0  0  0  0  0
   20.8322   18.4493   19.3958 H   0  0  0  0  0  0  0  0  0  0  0  0
   20.2413   20.1096   26.4843 C   0  0  0  0  0  0  0  0  0  0  0  0
   20.4060   19.4290   27.3224 H   0  0  0  0  0  0  0  0  0  0  0  0
   21.1778   20.2687   25.9460 H   0  0  0  0  0  0  0  0  0  0  0  0
   19.8630   21.0653   26.8540 H   0  0  0  0  0  0  0  0  0  0  0  0
  1  2  1  0  0  0  0
  1  3  1  0  0  0  0
  1  4  1  0  0  0  0
  4  5  1  0  0  0  0
  4  6  1  0  0  0  0
  4  7  1  0  0  0  0
  7  8  1  0  0  0  0
  7  9  1  0  0  0  0
  7 10  1  0  0  0  0
 10 11  1  0  0  0  0
 10 12  1  0  0  0  0
 10 13  1  0  0  0  0
 13 14  1  0  0  0  0
 13 15  1  0  0  0  0
 13 16  1  0  0  0  0
 16 17  1  0  0  0  0
 16 18  1  0  0  0  0
 16 19  1  0  0  0  0
 19 20  1  0  0  0  0
 19 21  1  0  0  0  0
 19 22  1  0  0  0  0
  1 23  1  0  0  0  0
 23 24  1  0  0  0  0
 23 25  1  0  0  0  0
 23 26  1  0  0  0  0
M  END
> <VM2 Rank>
86

> <Conf_Id>
1216

> <Probability>
0.22

> <Sum Probability>
96.42

> <Delta G>
2.068

> <G>
77.535

> <E>
44.759

> <-TS>
32.776

> <U+W>
23.297

> <U>
73.041

> <W>
-49.745

> <W(PB)>
-52.024

> <W(SA)>
2.279

> <Valence>
2.938

> <Coulomb>
69.625

> <VdW>
0.478

> <VdW6>
-8.181

> <VdW12>
8.659

> <Bond>
0.253

> <Angle>
1.038

> <Pdih>
1.647

> <Idih>
0.000

> <Tether>
0.000

$$$$
VeraChem MOL file


 26 25  0  0  0  0  0  0  0  0999 V2000     
   19.5054   18.9112   26.1885 N   0  3  0  0  0  0  0  0  0  0  0  0
   19.5375   18.6723   27.1923 H   0  0  0  0  0  0  0  0  0  0  0  0
   18.7164   18.3653   25.8104 H   0  0  0  0  0  0  0  0  0  0  0  0
   20.8073   18.4853   25.5290 C   0  0  0  0  0  0  0  0  0  0  0  0
   21.2007   17.6532   26.1186 H   0  0  0  0  0  0  0  0  0  0  0  0
   21.5173   19.3124   25.6071 H   0  0  0  0  0  0  0  0  0  0  0  0
   20.6875   18.0158   24.0618 C   0  0  0  0  0  0  0  0  0  0  0  0
   21.6720   17.6480   23.7434 H   0  0  0  0  0  0  0  0  0  0  0  0
   20.0054   17.1570   24.0087 H   0  0  0  0  0  0  0  0  0  0  0  0
   20.2183   19.1182   23.0835 C   0  0  0  0  0  0  0  0  0  0  0  0
   20.8479   20.0105   23.2057 H   0  0  0  0  0  0  0  0  0  0  0  0
   19.1888   19.4128   23.3251 H   0  0  0  0  0  0  0  0  0  0  0  0
   20.2730   18.6440   21.6133 C   0  0  0  0  0  0  0  0  0  0  0  0
   21.3010   18.3507   21.3589 H   0  0  0  0  0  0  0  0  0  0  0  0
   19.6482   17.7481   21.4927 H   0  0  0  0  0  0  0  0  0  0  0  0
   19.7947   19.7409   20.6359 C   0  0  0  0  0  0  0  0  0  0  0  0
   20.4180   20.6387   20.7517 H   0  0  0  0  0  0  0  0  0  0  0  0
   18.7653   20.0359   20.8837 H   0  0  0  0  0  0  0  0  0  0  0  0
   19.8512   19.2644   19.1687 C   0  0  0  0  0  0  0  0  0  0  0  0
   20.8755   18.9945   18.8803 H   0  0  0  0  0  0  0  0  0  0  0  0
   19.5080   20.0562   18.4904 H   0  0  0  0  0  0  0  0  0  0  0  0
   19.2100   18.3869   19.0135 H   0  0  0  0  0  0  0  0  0  0  0  0
   19.2706   20.4103   26.0363 C   0  0  0  0  0  0  0  0  0  0  0  0
   18.3388   20.6780   26.5394 H   0  0  0  0  0  0  0  0  0  0  0  0
   20.1027   20.9501   26.4935 H   0  0  0  0  0  0  0  0  0  0  0  0
   19.2028   20.6673   24.9785 H   0  0  0  0  0  0  0  0  0  0  0  0
  1  2  1  0  0  0  0
  1  3  1  0  0  0  0
  1  4  1  0  0  0  0
  4  5  1  0  0  0  0
  4  6  1  0  0  0  0
  4  7  1  0  0  0  0
  7  8  1  0  0  0  0
  7  9  1  0  0  0  0
  7 10  1  0  0  0  0
 10 11  1  0  0  0  0
 10 12  1  0  0  0  0
 10 13  1  0  0  0  0
 13 14  1  0  0  0  0
 13 15  1  0  0  0  0
 13 16  1  0  0  0  0
 16 17  1  0  0  0  0
 16 18  1  0  0  0  0
 16 19  1  0  0  0  0
 19 20  1  0  0  0  0
 19 21  1  0  0  0  0
 19 22  1  0  0  0  0
  1 23  1  0  0  0  0
 23 24  1  0  0  0  0
 23 25  1  0  0  0  0
 23 26  1  0  0  0  0
M  END
> <VM2 Rank>
87

> <Conf_Id>
1015

> <Probability>
0.21

> <Sum Probability>
96.63

> <Delta G>
2.100

> <G>
77.566

> <E>
45.057

> <-TS>
32.510

> <U+W>
23.595

> <U>
72.879

> <W>
-49.283

> <W(PB)>
-51.552

> <W(SA)>
2.268

> <Valence>
3.733

> <Coulomb>
68.869

> <VdW>
0.277

> <VdW6>
-6.946

> <VdW12>
7.223

> <Bond>
0.187

> <Angle>
0.835

> <Pdih>
2.712

> <Idih>
0.000

> <Tether>
0.000

$$$$
VeraChem MOL file


 26 25  0  0  0  0  0  0  0  0999 V2000     
   20.4139   19.0042   26.2207 N   0  3  0  0  0  0  0  0  0  0  0  0
   21.3215   18.6319   25.9028 H   0  0  0  0  0  0  0  0  0  0  0  0
   20.3604   18.7565   27.2215 H   0  0  0  0  0  0  0  0  0  0  0  0
   19.2745   18.3284   25.4747 C   0  0  0  0  0  0  0  0  0  0  0  0
   18.4082   18.9942   25.4969 H   0  0  0  0  0  0  0  0  0  0  0  0
   19.0173   17.4297   26.0412 H   0  0  0  0  0  0  0  0  0  0  0  0
   19.5893   17.9034   24.0229 C   0  0  0  0  0  0  0  0  0  0  0  0
   20.4332   17.2009   24.0239 H   0  0  0  0  0  0  0  0  0  0  0  0
   18.7244   17.3462   23.6390 H   0  0  0  0  0  0  0  0  0  0  0  0
   19.8930   19.0849   23.0719 C   0  0  0  0  0  0  0  0  0  0  0  0
   20.8220   19.5801   23.3830 H   0  0  0  0  0  0  0  0  0  0  0  0
   19.0888   19.8304   23.1433 H   0  0  0  0  0  0  0  0  0  0  0  0
   20.0385   18.6200   21.6050 C   0  0  0  0  0  0  0  0  0  0  0  0
   20.8387   17.8700   21.5349 H   0  0  0  0  0  0  0  0  0  0  0  0
   19.1116   18.1264   21.2814 H   0  0  0  0  0  0  0  0  0  0  0  0
   20.3521   19.7979   20.6556 C   0  0  0  0  0  0  0  0  0  0  0  0
   21.2804   20.2936   20.9728 H   0  0  0  0  0  0  0  0  0  0  0  0
   19.5533   20.5501   20.7210 H   0  0  0  0  0  0  0  0  0  0  0  0
   20.4962   19.3304   19.1916 C   0  0  0  0  0  0  0  0  0  0  0  0
   21.3111   18.6021   19.0880 H   0  0  0  0  0  0  0  0  0  0  0  0
   20.7185   20.1802   18.5332 H   0  0  0  0  0  0  0  0  0  0  0  0
   19.5706   18.8607   18.8340 H   0  0  0  0  0  0  0  0  0  0  0  0
   20.3506   20.5208   26.0746 C   0  0  0  0  0  0  0  0  0  0  0  0
   21.1714   20.9679   26.6398 H   0  0  0  0  0  0  0  0  0  0  0  0
   20.4389   20.7938   25.0223 H   0  0  0  0  0  0  0  0  0  0  0  0
   19.3965   20.8779   26.4685 H   0  0  0  0  0  0  0  0  0  0  0  0
  1  2  1  0  0  0  0
  1  3  1  0  0  0  0
  1  4  1  0  0  0  0
  4  5  1  0  0  0  0
  4  6  1  0  0  0  0
  4  7  1  0  0  0  0
  7  8  1  0  0  0  0
  7  9  1  0  0  0  0
  7 10  1  0  0  0  0
 10 11  1  0  0  0  0
 10 12  1  0  0  0  0
 10 13  1  0  0  0  0
 13 14  1  0  0  0  0
 13 15  1  0  0  0  0
 13 16  1  0  0  0  0
 16 17  1  0  0  0  0
 16 18  1  0  0  0  0
 16 19  1  0  0  0  0
 19 20  1  0  0  0  0
 19 21  1  0  0  0  0
 19 22  1  0  0  0  0
  1 23  1  0  0  0  0
 23 24  1  0  0  0  0
 23 25  1  0  0  0  0
 23 26  1  0  0  0  0
M  END
> <VM2 Rank>
88

> <Conf_Id>
256

> <Probability>
0.21

> <Sum Probability>
96.83

> <Delta G>
2.105

> <G>
77.571

> <E>
45.061

> <-TS>
32.510

> <U+W>
23.599

> <U>
72.879

> <W>
-49.280

> <W(PB)>
-51.580

> <W(SA)>
2.300

> <Valence>
3.733

> <Coulomb>
68.869

> <VdW>
0.276

> <VdW6>
-6.946

> <VdW12>
7.222

> <Bond>
0.187

> <Angle>
0.835

> <Pdih>
2.712

> <Idih>
0.000

> <Tether>
0.000

$$$$
VeraChem MOL file


 26 25  0  0  0  0  0  0  0  0999 V2000     
   20.6770   18.4455   25.3396 N   0  3  0  0  0  0  0  0  0  0  0  0
   21.2650   18.4900   24.4940 H   0  0  0  0  0  0  0  0  0  0  0  0
   20.8949   17.5345   25.7735 H   0  0  0  0  0  0  0  0  0  0  0  0
   19.2073   18.4879   24.9523 C   0  0  0  0  0  0  0  0  0  0  0  0
   18.6200   18.4584   25.8735 H   0  0  0  0  0  0  0  0  0  0  0  0
   18.9920   17.5766   24.3891 H   0  0  0  0  0  0  0  0  0  0  0  0
   18.7863   19.7130   24.1091 C   0  0  0  0  0  0  0  0  0  0  0  0
   17.7144   19.6324   23.8853 H   0  0  0  0  0  0  0  0  0  0  0  0
   18.9013   20.6255   24.7082 H   0  0  0  0  0  0  0  0  0  0  0  0
   19.5751   19.8668   22.7846 C   0  0  0  0  0  0  0  0  0  0  0  0
   20.6339   20.0474   23.0096 H   0  0  0  0  0  0  0  0  0  0  0  0
   19.2154   20.7657   22.2652 H   0  0  0  0  0  0  0  0  0  0  0  0
   19.4276   18.6436   21.8444 C   0  0  0  0  0  0  0  0  0  0  0  0
   19.8557   17.7486   22.3151 H   0  0  0  0  0  0  0  0  0  0  0  0
   18.3595   18.4336   21.6953 H   0  0  0  0  0  0  0  0  0  0  0  0
   20.0858   18.8518   20.4591 C   0  0  0  0  0  0  0  0  0  0  0  0
   19.6471   19.7310   19.9669 H   0  0  0  0  0  0  0  0  0  0  0  0
   19.8441   17.9904   19.8208 H   0  0  0  0  0  0  0  0  0  0  0  0
   21.6224   19.0059   20.5267 C   0  0  0  0  0  0  0  0  0  0  0  0
   22.0835   18.1509   21.0378 H   0  0  0  0  0  0  0  0  0  0  0  0
   21.9135   19.9217   21.0559 H   0  0  0  0  0  0  0  0  0  0  0  0
   22.0474   19.0607   19.5161 H   0  0  0  0  0  0  0  0  0  0  0  0
   21.0263   19.5755   26.3011 C   0  0  0  0  0  0  0  0  0  0  0  0
   20.4013   19.4933   27.1930 H   0  0  0  0  0  0  0  0  0  0  0  0
   22.0793   19.4950   26.5799 H   0  0  0  0  0  0  0  0  0  0  0  0
   20.8484   20.5346   25.8107 H   0  0  0  0  0  0  0  0  0  0  0  0
  1  2  1  0  0  0  0
  1  3  1  0  0  0  0
  1  4  1  0  0  0  0
  4  5  1  0  0  0  0
  4  6  1  0  0  0  0
  4  7  1  0  0  0  0
  7  8  1  0  0  0  0
  7  9  1  0  0  0  0
  7 10  1  0  0  0  0
 10 11  1  0  0  0  0
 10 12  1  0  0  0  0
 10 13  1  0  0  0  0
 13 14  1  0  0  0  0
 13 15  1  0  0  0  0
 13 16  1  0  0  0  0
 16 17  1  0  0  0  0
 16 18  1  0  0  0  0
 16 19  1  0  0  0  0
 19 20  1  0  0  0  0
 19 21  1  0  0  0  0
 19 22  1  0  0  0  0
  1 23  1  0  0  0  0
 23 24  1  0  0  0  0
 23 25  1  0  0  0  0
 23 26  1  0  0  0  0
M  END
> <VM2 Rank>
89

> <Conf_Id>
1345

> <Probability>
0.20

> <Sum Probability>
97.03

> <Delta G>
2.141

> <G>
77.607

> <E>
44.799

> <-TS>
32.808

> <U+W>
23.337

> <U>
73.121

> <W>
-49.784

> <W(PB)>
-52.011

> <W(SA)>
2.227

> <Valence>
2.868

> <Coulomb>
69.886

> <VdW>
0.367

> <VdW6>
-8.311

> <VdW12>
8.678

> <Bond>
0.246

> <Angle>
0.961

> <Pdih>
1.661

> <Idih>
0.000

> <Tether>
0.000

$$$$
VeraChem MOL file


 26 25  0  0  0  0  0  0  0  0999 V2000     
   20.7260   18.6312   25.8433 N   0  3  0  0  0  0  0  0  0  0  0  0
   21.6041   18.9276   26.2981 H   0  0  0  0  0  0  0  0  0  0  0  0
   20.8949   17.6577   25.5466 H   0  0  0  0  0  0  0  0  0  0  0  0
   20.4581   19.5108   24.6335 C   0  0  0  0  0  0  0  0  0  0  0  0
   21.3825   19.5491   24.0522 H   0  0  0  0  0  0  0  0  0  0  0  0
   20.2403   20.5200   24.9919 H   0  0  0  0  0  0  0  0  0  0  0  0
   19.3127   19.0184   23.7238 C   0  0  0  0  0  0  0  0  0  0  0  0
   19.5128   17.9883   23.4031 H   0  0  0  0  0  0  0  0  0  0  0  0
   18.3779   18.9855   24.2979 H   0  0  0  0  0  0  0  0  0  0  0  0
   19.1005   19.9265   22.4869 C   0  0  0  0  0  0  0  0  0  0  0  0
   18.7840   20.9219   22.8281 H   0  0  0  0  0  0  0  0  0  0  0  0
   18.2613   19.5365   21.8955 H   0  0  0  0  0  0  0  0  0  0  0  0
   20.3463   20.0889   21.5745 C   0  0  0  0  0  0  0  0  0  0  0  0
   20.0768   20.7314   20.7249 H   0  0  0  0  0  0  0  0  0  0  0  0
   21.1290   20.6344   22.1187 H   0  0  0  0  0  0  0  0  0  0  0  0
   20.9427   18.7656   21.0306 C   0  0  0  0  0  0  0  0  0  0  0  0
   21.3178   18.1493   21.8586 H   0  0  0  0  0  0  0  0  0  0  0  0
   21.8197   19.0047   20.4130 H   0  0  0  0  0  0  0  0  0  0  0  0
   19.9444   17.9468   20.1811 C   0  0  0  0  0  0  0  0  0  0  0  0
   20.4378   17.0658   19.7505 H   0  0  0  0  0  0  0  0  0  0  0  0
   19.5465   18.5470   19.3526 H   0  0  0  0  0  0  0  0  0  0  0  0
   19.0999   17.5908   20.7840 H   0  0  0  0  0  0  0  0  0  0  0  0
   19.5773   18.7017   26.8432 C   0  0  0  0  0  0  0  0  0  0  0  0
   18.6659   18.3249   26.3748 H   0  0  0  0  0  0  0  0  0  0  0  0
   19.8231   18.0887   27.7132 H   0  0  0  0  0  0  0  0  0  0  0  0
   19.4339   19.7394   27.1522 H   0  0  0  0  0  0  0  0  0  0  0  0
  1  2  1  0  0  0  0
  1  3  1  0  0  0  0
  1  4  1  0  0  0  0
  4  5  1  0  0  0  0
  4  6  1  0  0  0  0
  4  7  1  0  0  0  0
  7  8  1  0  0  0  0
  7  9  1  0  0  0  0
  7 10  1  0  0  0  0
 10 11  1  0  0  0  0
 10 12  1  0  0  0  0
 10 13  1  0  0  0  0
 13 14  1  0  0  0  0
 13 15  1  0  0  0  0
 13 16  1  0  0  0  0
 16 17  1  0  0  0  0
 16 18  1  0  0  0  0
 16 19  1  0  0  0  0
 19 20  1  0  0  0  0
 19 21  1  0  0  0  0
 19 22  1  0  0  0  0
  1 23  1  0  0  0  0
 23 24  1  0  0  0  0
 23 25  1  0  0  0  0
 23 26  1  0  0  0  0
M  END
> <VM2 Rank>
90

> <Conf_Id>
502

> <Probability>
0.20

> <Sum Probability>
97.23

> <Delta G>
2.144

> <G>
77.610

> <E>
44.605

> <-TS>
33.005

> <U+W>
23.143

> <U>
72.964

> <W>
-49.820

> <W(PB)>
-52.038

> <W(SA)>
2.218

> <Valence>
3.204

> <Coulomb>
69.346

> <VdW>
0.413

> <VdW6>
-8.434

> <VdW12>
8.848

> <Bond>
0.271

> <Angle>
1.306

> <Pdih>
1.627

> <Idih>
0.000

> <Tether>
0.000

$$$$
VeraChem MOL file


 26 25  0  0  0  0  0  0  0  0999 V2000     
   19.3013   18.4867   25.7928 N   0  3  0  0  0  0  0  0  0  0  0  0
   19.3522   17.5012   25.4920 H   0  0  0  0  0  0  0  0  0  0  0  0
   18.3518   18.5977   26.1829 H   0  0  0  0  0  0  0  0  0  0  0  0
   19.4712   19.4107   24.5985 C   0  0  0  0  0  0  0  0  0  0  0  0
   19.4565   20.4404   24.9640 H   0  0  0  0  0  0  0  0  0  0  0  0
   18.6011   19.2668   23.9536 H   0  0  0  0  0  0  0  0  0  0  0  0
   20.7531   19.1645   23.7748 C   0  0  0  0  0  0  0  0  0  0  0  0
   21.6329   19.3158   24.4133 H   0  0  0  0  0  0  0  0  0  0  0  0
   20.7867   18.1175   23.4482 H   0  0  0  0  0  0  0  0  0  0  0  0
   20.8650   20.1055   22.5495 C   0  0  0  0  0  0  0  0  0  0  0  0
   21.8047   19.8961   22.0211 H   0  0  0  0  0  0  0  0  0  0  0  0
   20.9506   21.1417   22.9049 H   0  0  0  0  0  0  0  0  0  0  0  0
   19.6790   20.0212   21.5509 C   0  0  0  0  0  0  0  0  0  0  0  0
   18.7666   20.3947   22.0350 H   0  0  0  0  0  0  0  0  0  0  0  0
   19.8730   20.7107   20.7177 H   0  0  0  0  0  0  0  0  0  0  0  0
   19.3998   18.6091   20.9760 C   0  0  0  0  0  0  0  0  0  0  0  0
   18.5382   18.6717   20.2966 H   0  0  0  0  0  0  0  0  0  0  0  0
   19.0988   17.9242   21.7799 H   0  0  0  0  0  0  0  0  0  0  0  0
   20.5991   18.0132   20.2043 C   0  0  0  0  0  0  0  0  0  0  0  0
   20.9256   18.6869   19.4016 H   0  0  0  0  0  0  0  0  0  0  0  0
   20.3239   17.0543   19.7466 H   0  0  0  0  0  0  0  0  0  0  0  0
   21.4535   17.8296   20.8676 H   0  0  0  0  0  0  0  0  0  0  0  0
   20.3395   18.7790   26.8701 C   0  0  0  0  0  0  0  0  0  0  0  0
   20.1614   18.1231   27.7252 H   0  0  0  0  0  0  0  0  0  0  0  0
   21.3385   18.5959   26.4695 H   0  0  0  0  0  0  0  0  0  0  0  0
   20.2500   19.8222   27.1809 H   0  0  0  0  0  0  0  0  0  0  0  0
  1  2  1  0  0  0  0
  1  3  1  0  0  0  0
  1  4  1  0  0  0  0
  4  5  1  0  0  0  0
  4  6  1  0  0  0  0
  4  7  1  0  0  0  0
  7  8  1  0  0  0  0
  7  9  1  0  0  0  0
  7 10  1  0  0  0  0
 10 11  1  0  0  0  0
 10 12  1  0  0  0  0
 10 13  1  0  0  0  0
 13 14  1  0  0  0  0
 13 15  1  0  0  0  0
 13 16  1  0  0  0  0
 16 17  1  0  0  0  0
 16 18  1  0  0  0  0
 16 19  1  0  0  0  0
 19 20  1  0  0  0  0
 19 21  1  0  0  0  0
 19 22  1  0  0  0  0
  1 23  1  0  0  0  0
 23 24  1  0  0  0  0
 23 25  1  0  0  0  0
 23 26  1  0  0  0  0
M  END
> <VM2 Rank>
91

> <Conf_Id>
509

> <Probability>
0.19

> <Sum Probability>
97.42

> <Delta G>
2.162

> <G>
77.628

> <E>
44.623

> <-TS>
33.005

> <U+W>
23.161

> <U>
72.964

> <W>
-49.802

> <W(PB)>
-52.051

> <W(SA)>
2.249

> <Valence>
3.203

> <Coulomb>
69.346

> <VdW>
0.414

> <VdW6>
-8.435

> <VdW12>
8.849

> <Bond>
0.271

> <Angle>
1.305

> <Pdih>
1.626

> <Idih>
0.000

> <Tether>
0.000

$$$$
VeraChem MOL file


 26 25  0  0  0  0  0  0  0  0999 V2000     
   19.4223   18.3177   25.2950 N   0  3  0  0  0  0  0  0  0  0  0  0
   19.3625   17.3784   25.7191 H   0  0  0  0  0  0  0  0  0  0  0  0
   18.8983   18.2487   24.4099 H   0  0  0  0  0  0  0  0  0  0  0  0
   20.8769   18.6580   25.0115 C   0  0  0  0  0  0  0  0  0  0  0  0
   21.3103   17.8128   24.4713 H   0  0  0  0  0  0  0  0  0  0  0  0
   21.3920   18.7409   25.9718 H   0  0  0  0  0  0  0  0  0  0  0  0
   21.1006   19.9487   24.1911 C   0  0  0  0  0  0  0  0  0  0  0  0
   20.7626   20.8151   24.7741 H   0  0  0  0  0  0  0  0  0  0  0  0
   22.1798   20.0872   24.0435 H   0  0  0  0  0  0  0  0  0  0  0  0
   20.3917   19.9500   22.8135 C   0  0  0  0  0  0  0  0  0  0  0  0
   20.5987   20.9066   22.3142 H   0  0  0  0  0  0  0  0  0  0  0  0
   19.3052   19.9122   22.9626 H   0  0  0  0  0  0  0  0  0  0  0  0
   20.8478   18.7882   21.8949 C   0  0  0  0  0  0  0  0  0  0  0  0
   21.9442   18.7986   21.8224 H   0  0  0  0  0  0  0  0  0  0  0  0
   20.5768   17.8221   22.3408 H   0  0  0  0  0  0  0  0  0  0  0  0
   20.2599   18.8695   20.4654 C   0  0  0  0  0  0  0  0  0  0  0  0
   20.7141   18.0790   19.8517 H   0  0  0  0  0  0  0  0  0  0  0  0
   20.5459   19.8225   19.9988 H   0  0  0  0  0  0  0  0  0  0  0  0
   18.7228   18.7106   20.4242 C   0  0  0  0  0  0  0  0  0  0  0  0
   18.4087   17.7766   20.9078 H   0  0  0  0  0  0  0  0  0  0  0  0
   18.3673   18.6860   19.3859 H   0  0  0  0  0  0  0  0  0  0  0  0
   18.2170   19.5453   20.9251 H   0  0  0  0  0  0  0  0  0  0  0  0
   18.7859   19.3473   26.2214 C   0  0  0  0  0  0  0  0  0  0  0  0
   18.8010   20.3260   25.7377 H   0  0  0  0  0  0  0  0  0  0  0  0
   17.7538   19.0543   26.4262 H   0  0  0  0  0  0  0  0  0  0  0  0
   19.3504   19.3864   27.1555 H   0  0  0  0  0  0  0  0  0  0  0  0
  1  2  1  0  0  0  0
  1  3  1  0  0  0  0
  1  4  1  0  0  0  0
  4  5  1  0  0  0  0
  4  6  1  0  0  0  0
  4  7  1  0  0  0  0
  7  8  1  0  0  0  0
  7  9  1  0  0  0  0
  7 10  1  0  0  0  0
 10 11  1  0  0  0  0
 10 12  1  0  0  0  0
 10 13  1  0  0  0  0
 13 14  1  0  0  0  0
 13 15  1  0  0  0  0
 13 16  1  0  0  0  0
 16 17  1  0  0  0  0
 16 18  1  0  0  0  0
 16 19  1  0  0  0  0
 19 20  1  0  0  0  0
 19 21  1  0  0  0  0
 19 22  1  0  0  0  0
  1 23  1  0  0  0  0
 23 24  1  0  0  0  0
 23 25  1  0  0  0  0
 23 26  1  0  0  0  0
M  END
> <VM2 Rank>
92

> <Conf_Id>
556

> <Probability>
0.19

> <Sum Probability>
97.60

> <Delta G>
2.172

> <G>
77.638

> <E>
44.830

> <-TS>
32.808

> <U+W>
23.368

> <U>
73.122

> <W>
-49.754

> <W(PB)>
-51.988

> <W(SA)>
2.234

> <Valence>
2.869

> <Coulomb>
69.886

> <VdW>
0.367

> <VdW6>
-8.311

> <VdW12>
8.679

> <Bond>
0.246

> <Angle>
0.961

> <Pdih>
1.661

> <Idih>
0.000

> <Tether>
0.000

$$$$
VeraChem MOL file


 26 25  0  0  0  0  0  0  0  0999 V2000     
   19.4351   18.8012   26.1598 N   0  3  0  0  0  0  0  0  0  0  0  0
   19.5893   18.6050   27.1616 H   0  0  0  0  0  0  0  0  0  0  0  0
   18.5767   18.2816   25.9206 H   0  0  0  0  0  0  0  0  0  0  0  0
   20.6161   18.2639   25.3627 C   0  0  0  0  0  0  0  0  0  0  0  0
   20.7885   17.2477   25.7266 H   0  0  0  0  0  0  0  0  0  0  0  0
   21.5001   18.8575   25.6084 H   0  0  0  0  0  0  0  0  0  0  0  0
   20.4272   18.1955   23.8304 C   0  0  0  0  0  0  0  0  0  0  0  0
   21.0468   17.3710   23.4539 H   0  0  0  0  0  0  0  0  0  0  0  0
   19.3875   17.9323   23.5995 H   0  0  0  0  0  0  0  0  0  0  0  0
   20.8483   19.4954   23.0985 C   0  0  0  0  0  0  0  0  0  0  0  0
   21.8552   19.7814   23.4326 H   0  0  0  0  0  0  0  0  0  0  0  0
   20.1869   20.3250   23.3738 H   0  0  0  0  0  0  0  0  0  0  0  0
   20.8650   19.3551   21.5563 C   0  0  0  0  0  0  0  0  0  0  0  0
   21.2817   20.2768   21.1271 H   0  0  0  0  0  0  0  0  0  0  0  0
   21.5484   18.5449   21.2665 H   0  0  0  0  0  0  0  0  0  0  0  0
   19.4667   19.1027   20.9440 C   0  0  0  0  0  0  0  0  0  0  0  0
   18.7703   19.8865   21.2732 H   0  0  0  0  0  0  0  0  0  0  0  0
   19.0625   18.1467   21.3025 H   0  0  0  0  0  0  0  0  0  0  0  0
   19.5165   19.0781   19.4013 C   0  0  0  0  0  0  0  0  0  0  0  0
   20.1827   18.2836   19.0406 H   0  0  0  0  0  0  0  0  0  0  0  0
   19.8779   20.0347   19.0021 H   0  0  0  0  0  0  0  0  0  0  0  0
   18.5178   18.8953   18.9840 H   0  0  0  0  0  0  0  0  0  0  0  0
   19.2330   20.2982   25.9640 C   0  0  0  0  0  0  0  0  0  0  0  0
   18.9171   20.4883   24.9374 H   0  0  0  0  0  0  0  0  0  0  0  0
   18.4581   20.6450   26.6512 H   0  0  0  0  0  0  0  0  0  0  0  0
   20.1703   20.8187   26.1718 H   0  0  0  0  0  0  0  0  0  0  0  0
  1  2  1  0  0  0  0
  1  3  1  0  0  0  0
  1  4  1  0  0  0  0
  4  5  1  0  0  0  0
  4  6  1  0  0  0  0
  4  7  1  0  0  0  0
  7  8  1  0  0  0  0
  7  9  1  0  0  0  0
  7 10  1  0  0  0  0
 10 11  1  0  0  0  0
 10 12  1  0  0  0  0
 10 13  1  0  0  0  0
 13 14  1  0  0  0  0
 13 15  1  0  0  0  0
 13 16  1  0  0  0  0
 16 17  1  0  0  0  0
 16 18  1  0  0  0  0
 16 19  1  0  0  0  0
 19 20  1  0  0  0  0
 19 21  1  0  0  0  0
 19 22  1  0  0  0  0
  1 23  1  0  0  0  0
 23 24  1  0  0  0  0
 23 25  1  0  0  0  0
 23 26  1  0  0  0  0
M  END
> <VM2 Rank>
93

> <Conf_Id>
1118

> <Probability>
0.16

> <Sum Probability>
97.76

> <Delta G>
2.272

> <G>
77.738

> <E>
45.764

> <-TS>
31.974

> <U+W>
24.302

> <U>
73.883

> <W>
-49.580

> <W(PB)>
-51.846

> <W(SA)>
2.266

> <Valence>
4.358

> <Coulomb>
69.048

> <VdW>
0.477

> <VdW6>
-7.513

> <VdW12>
7.990

> <Bond>
0.237

> <Angle>
1.266

> <Pdih>
2.854

> <Idih>
0.000

> <Tether>
0.000

$$$$
VeraChem MOL file


 26 25  0  0  0  0  0  0  0  0999 V2000     
   19.6813   18.9408   25.6720 N   0  3  0  0  0  0  0  0  0  0  0  0
   19.8870   18.0472   26.1451 H   0  0  0  0  0  0  0  0  0  0  0  0
   18.7758   18.8013   25.1992 H   0  0  0  0  0  0  0  0  0  0  0  0
   20.7570   19.2488   24.6492 C   0  0  0  0  0  0  0  0  0  0  0  0
   21.7007   19.3701   25.1869 H   0  0  0  0  0  0  0  0  0  0  0  0
   20.5094   20.2023   24.1767 H   0  0  0  0  0  0  0  0  0  0  0  0
   20.9183   18.1602   23.5685 C   0  0  0  0  0  0  0  0  0  0  0  0
   21.7605   18.4297   22.9185 H   0  0  0  0  0  0  0  0  0  0  0  0
   21.2014   17.2145   24.0494 H   0  0  0  0  0  0  0  0  0  0  0  0
   19.6473   17.9359   22.7077 C   0  0  0  0  0  0  0  0  0  0  0  0
   18.8555   17.5062   23.3356 H   0  0  0  0  0  0  0  0  0  0  0  0
   19.8615   17.1717   21.9487 H   0  0  0  0  0  0  0  0  0  0  0  0
   19.0965   19.2119   22.0154 C   0  0  0  0  0  0  0  0  0  0  0  0
   18.2112   18.9368   21.4256 H   0  0  0  0  0  0  0  0  0  0  0  0
   18.7358   19.9154   22.7777 H   0  0  0  0  0  0  0  0  0  0  0  0
   20.1026   19.9465   21.0930 C   0  0  0  0  0  0  0  0  0  0  0  0
   20.9528   20.3202   21.6792 H   0  0  0  0  0  0  0  0  0  0  0  0
   19.6103   20.8364   20.6766 H   0  0  0  0  0  0  0  0  0  0  0  0
   20.6172   19.0720   19.9272 C   0  0  0  0  0  0  0  0  0  0  0  0
   19.7834   18.6754   19.3336 H   0  0  0  0  0  0  0  0  0  0  0  0
   21.2130   18.2257   20.2912 H   0  0  0  0  0  0  0  0  0  0  0  0
   21.2559   19.6616   19.2569 H   0  0  0  0  0  0  0  0  0  0  0  0
   19.5877   20.0740   26.6840 C   0  0  0  0  0  0  0  0  0  0  0  0
   20.5486   20.1818   27.1919 H   0  0  0  0  0  0  0  0  0  0  0  0
   19.3384   21.0010   26.1630 H   0  0  0  0  0  0  0  0  0  0  0  0
   18.8092   19.8397   27.4133 H   0  0  0  0  0  0  0  0  0  0  0  0
  1  2  1  0  0  0  0
  1  3  1  0  0  0  0
  1  4  1  0  0  0  0
  4  5  1  0  0  0  0
  4  6  1  0  0  0  0
  4  7  1  0  0  0  0
  7  8  1  0  0  0  0
  7  9  1  0  0  0  0
  7 10  1  0  0  0  0
 10 11  1  0  0  0  0
 10 12  1  0  0  0  0
 10 13  1  0  0  0  0
 13 14  1  0  0  0  0
 13 15  1  0  0  0  0
 13 16  1  0  0  0  0
 16 17  1  0  0  0  0
 16 18  1  0  0  0  0
 16 19  1  0  0  0  0
 19 20  1  0  0  0  0
 19 21  1  0  0  0  0
 19 22  1  0  0  0  0
  1 23  1  0  0  0  0
 23 24  1  0  0  0  0
 23 25  1  0  0  0  0
 23 26  1  0  0  0  0
M  END
> <VM2 Rank>
94

> <Conf_Id>
1357

> <Probability>
0.14

> <Sum Probability>
97.90

> <Delta G>
2.329

> <G>
77.796

> <E>
44.775

> <-TS>
33.021

> <U+W>
23.313

> <U>
72.853

> <W>
-49.540

> <W(PB)>
-51.773

> <W(SA)>
2.233

> <Valence>
3.035

> <Coulomb>
69.793

> <VdW>
0.025

> <VdW6>
-8.577

> <VdW12>
8.602

> <Bond>
0.254

> <Angle>
1.267

> <Pdih>
1.514

> <Idih>
0.000

> <Tether>
0.000

$$$$
VeraChem MOL file


 26 25  0  0  0  0  0  0  0  0999 V2000     
   20.2723   19.0013   25.6930 N   0  3  0  0  0  0  0  0  0  0  0  0
   21.2181   19.0517   25.2858 H   0  0  0  0  0  0  0  0  0  0  0  0
   20.2192   18.0813   26.1569 H   0  0  0  0  0  0  0  0  0  0  0  0
   19.2308   19.0923   24.5951 C   0  0  0  0  0  0  0  0  0  0  0  0
   19.3125   20.0797   24.1343 H   0  0  0  0  0  0  0  0  0  0  0  0
   18.2467   19.0161   25.0646 H   0  0  0  0  0  0  0  0  0  0  0  0
   19.3695   18.0014   23.5137 C   0  0  0  0  0  0  0  0  0  0  0  0
   19.2509   17.0146   23.9803 H   0  0  0  0  0  0  0  0  0  0  0  0
   18.5378   18.0994   22.8044 H   0  0  0  0  0  0  0  0  0  0  0  0
   20.7166   18.0455   22.7456 C   0  0  0  0  0  0  0  0  0  0  0  0
   20.7153   17.2592   21.9790 H   0  0  0  0  0  0  0  0  0  0  0  0
   21.5332   17.7806   23.4304 H   0  0  0  0  0  0  0  0  0  0  0  0
   21.0445   19.4116   22.0844 C   0  0  0  0  0  0  0  0  0  0  0  0
   21.2010   20.1681   22.8650 H   0  0  0  0  0  0  0  0  0  0  0  0
   22.0062   19.3258   21.5600 H   0  0  0  0  0  0  0  0  0  0  0  0
   19.9775   19.9337   21.0886 C   0  0  0  0  0  0  0  0  0  0  0  0
   20.3072   20.9079   20.7013 H   0  0  0  0  0  0  0  0  0  0  0  0
   19.0303   20.1232   21.6111 H   0  0  0  0  0  0  0  0  0  0  0  0
   19.7337   18.9814   19.8959 C   0  0  0  0  0  0  0  0  0  0  0  0
   20.6701   18.7663   19.3650 H   0  0  0  0  0  0  0  0  0  0  0  0
   19.0374   19.4342   19.1783 H   0  0  0  0  0  0  0  0  0  0  0  0
   19.2978   18.0294   20.2233 H   0  0  0  0  0  0  0  0  0  0  0  0
   20.0632   20.1228   26.7008 C   0  0  0  0  0  0  0  0  0  0  0  0
   20.8200   20.0458   27.4846 H   0  0  0  0  0  0  0  0  0  0  0  0
   20.1554   21.0848   26.1920 H   0  0  0  0  0  0  0  0  0  0  0  0
   19.0672   20.0300   27.1394 H   0  0  0  0  0  0  0  0  0  0  0  0
  1  2  1  0  0  0  0
  1  3  1  0  0  0  0
  1  4  1  0  0  0  0
  4  5  1  0  0  0  0
  4  6  1  0  0  0  0
  4  7  1  0  0  0  0
  7  8  1  0  0  0  0
  7  9  1  0  0  0  0
  7 10  1  0  0  0  0
 10 11  1  0  0  0  0
 10 12  1  0  0  0  0
 10 13  1  0  0  0  0
 13 14  1  0  0  0  0
 13 15  1  0  0  0  0
 13 16  1  0  0  0  0
 16 17  1  0  0  0  0
 16 18  1  0  0  0  0
 16 19  1  0  0  0  0
 19 20  1  0  0  0  0
 19 21  1  0  0  0  0
 19 22  1  0  0  0  0
  1 23  1  0  0  0  0
 23 24  1  0  0  0  0
 23 25  1  0  0  0  0
 23 26  1  0  0  0  0
M  END
> <VM2 Rank>
95

> <Conf_Id>
536

> <Probability>
0.12

> <Sum Probability>
98.03

> <Delta G>
2.420

> <G>
77.886

> <E>
44.865

> <-TS>
33.021

> <U+W>
23.404

> <U>
72.853

> <W>
-49.449

> <W(PB)>
-51.678

> <W(SA)>
2.229

> <Valence>
3.035

> <Coulomb>
69.793

> <VdW>
0.025

> <VdW6>
-8.577

> <VdW12>
8.602

> <Bond>
0.254

> <Angle>
1.267

> <Pdih>
1.514

> <Idih>
0.000

> <Tether>
0.000

$$$$
VeraChem MOL file


 26 25  0  0  0  0  0  0  0  0999 V2000     
   20.6947   19.2188   25.6403 N   0  3  0  0  0  0  0  0  0  0  0  0
   21.4504   19.7531   26.0974 H   0  0  0  0  0  0  0  0  0  0  0  0
   21.1580   18.3981   25.2228 H   0  0  0  0  0  0  0  0  0  0  0  0
   20.0576   20.0659   24.5503 C   0  0  0  0  0  0  0  0  0  0  0  0
   20.8659   20.4684   23.9349 H   0  0  0  0  0  0  0  0  0  0  0  0
   19.5542   20.9064   25.0346 H   0  0  0  0  0  0  0  0  0  0  0  0
   19.0579   19.3175   23.6403 C   0  0  0  0  0  0  0  0  0  0  0  0
   18.2017   18.9797   24.2382 H   0  0  0  0  0  0  0  0  0  0  0  0
   18.6471   20.0267   22.9107 H   0  0  0  0  0  0  0  0  0  0  0  0
   19.6723   18.1028   22.8967 C   0  0  0  0  0  0  0  0  0  0  0  0
   18.9017   17.6474   22.2607 H   0  0  0  0  0  0  0  0  0  0  0  0
   19.9385   17.3287   23.6288 H   0  0  0  0  0  0  0  0  0  0  0  0
   20.9242   18.4300   22.0383 C   0  0  0  0  0  0  0  0  0  0  0  0
   21.7479   18.7399   22.6950 H   0  0  0  0  0  0  0  0  0  0  0  0
   21.2666   17.5066   21.5513 H   0  0  0  0  0  0  0  0  0  0  0  0
   20.7130   19.5175   20.9543 C   0  0  0  0  0  0  0  0  0  0  0  0
   21.6639   19.6746   20.4262 H   0  0  0  0  0  0  0  0  0  0  0  0
   20.4677   20.4796   21.4237 H   0  0  0  0  0  0  0  0  0  0  0  0
   19.6250   19.1496   19.9200 C   0  0  0  0  0  0  0  0  0  0  0  0
   19.8416   18.1834   19.4463 H   0  0  0  0  0  0  0  0  0  0  0  0
   19.5750   19.9080   19.1280 H   0  0  0  0  0  0  0  0  0  0  0  0
   18.6324   19.0904   20.3834 H   0  0  0  0  0  0  0  0  0  0  0  0
   19.6634   18.7880   26.6768 C   0  0  0  0  0  0  0  0  0  0  0  0
   18.9016   18.1728   26.1938 H   0  0  0  0  0  0  0  0  0  0  0  0
   20.1618   18.2096   27.4579 H   0  0  0  0  0  0  0  0  0  0  0  0
   19.2013   19.6760   27.1134 H   0  0  0  0  0  0  0  0  0  0  0  0
  1  2  1  0  0  0  0
  1  3  1  0  0  0  0
  1  4  1  0  0  0  0
  4  5  1  0  0  0  0
  4  6  1  0  0  0  0
  4  7  1  0  0  0  0
  7  8  1  0  0  0  0
  7  9  1  0  0  0  0
  7 10  1  0  0  0  0
 10 11  1  0  0  0  0
 10 12  1  0  0  0  0
 10 13  1  0  0  0  0
 13 14  1  0  0  0  0
 13 15  1  0  0  0  0
 13 16  1  0  0  0  0
 16 17  1  0  0  0  0
 16 18  1  0  0  0  0
 16 19  1  0  0  0  0
 19 20  1  0  0  0  0
 19 21  1  0  0  0  0
 19 22  1  0  0  0  0
  1 23  1  0  0  0  0
 23 24  1  0  0  0  0
 23 25  1  0  0  0  0
 23 26  1  0  0  0  0
M  END
> <VM2 Rank>
96

> <Conf_Id>
88

> <Probability>
0.11

> <Sum Probability>
98.14

> <Delta G>
2.473

> <G>
77.939

> <E>
44.698

> <-TS>
33.241

> <U+W>
23.236

> <U>
73.340

> <W>
-50.104

> <W(PB)>
-52.276

> <W(SA)>
2.172

> <Valence>
3.289

> <Coulomb>
69.804

> <VdW>
0.247

> <VdW6>
-9.372

> <VdW12>
9.619

> <Bond>
0.294

> <Angle>
1.399

> <Pdih>
1.596

> <Idih>
0.000

> <Tether>
0.000

$$$$
VeraChem MOL file


 26 25  0  0  0  0  0  0  0  0999 V2000     
   19.9367   19.1054   26.3236 N   0  3  0  0  0  0  0  0  0  0  0  0
   20.8798   18.8110   26.6204 H   0  0  0  0  0  0  0  0  0  0  0  0
   19.3571   19.0237   27.1740 H   0  0  0  0  0  0  0  0  0  0  0  0
   19.3988   18.1547   25.2626 C   0  0  0  0  0  0  0  0  0  0  0  0
   18.4104   18.5028   24.9527 H   0  0  0  0  0  0  0  0  0  0  0  0
   19.2694   17.1895   25.7590 H   0  0  0  0  0  0  0  0  0  0  0  0
   20.3007   17.9394   24.0264 C   0  0  0  0  0  0  0  0  0  0  0  0
   21.3576   17.9896   24.3198 H   0  0  0  0  0  0  0  0  0  0  0  0
   20.1305   16.9183   23.6601 H   0  0  0  0  0  0  0  0  0  0  0  0
   20.0070   18.9264   22.8707 C   0  0  0  0  0  0  0  0  0  0  0  0
   20.1946   19.9575   23.1913 H   0  0  0  0  0  0  0  0  0  0  0  0
   18.9420   18.8643   22.6111 H   0  0  0  0  0  0  0  0  0  0  0  0
   20.8707   18.6196   21.6234 C   0  0  0  0  0  0  0  0  0  0  0  0
   21.9302   18.6098   21.9145 H   0  0  0  0  0  0  0  0  0  0  0  0
   20.6430   17.6105   21.2530 H   0  0  0  0  0  0  0  0  0  0  0  0
   20.6859   19.6438   20.4774 C   0  0  0  0  0  0  0  0  0  0  0  0
   21.4053   19.4132   19.6791 H   0  0  0  0  0  0  0  0  0  0  0  0
   20.9379   20.6519   20.8354 H   0  0  0  0  0  0  0  0  0  0  0  0
   19.2610   19.6461   19.8782 C   0  0  0  0  0  0  0  0  0  0  0  0
   18.5171   19.9895   20.6076 H   0  0  0  0  0  0  0  0  0  0  0  0
   18.9733   18.6425   19.5392 H   0  0  0  0  0  0  0  0  0  0  0  0
   19.2092   20.3198   19.0131 H   0  0  0  0  0  0  0  0  0  0  0  0
   19.9472   20.5546   25.8548 C   0  0  0  0  0  0  0  0  0  0  0  0
   18.9492   20.8275   25.5053 H   0  0  0  0  0  0  0  0  0  0  0  0
   20.2343   21.1967   26.6904 H   0  0  0  0  0  0  0  0  0  0  0  0
   20.6716   20.6662   25.0464 H   0  0  0  0  0  0  0  0  0  0  0  0
  1  2  1  0  0  0  0
  1  3  1  0  0  0  0
  1  4  1  0  0  0  0
  4  5  1  0  0  0  0
  4  6  1  0  0  0  0
  4  7  1  0  0  0  0
  7  8  1  0  0  0  0
  7  9  1  0  0  0  0
  7 10  1  0  0  0  0
 10 11  1  0  0  0  0
 10 12  1  0  0  0  0
 10 13  1  0  0  0  0
 13 14  1  0  0  0  0
 13 15  1  0  0  0  0
 13 16  1  0  0  0  0
 16 17  1  0  0  0  0
 16 18  1  0  0  0  0
 16 19  1  0  0  0  0
 19 20  1  0  0  0  0
 19 21  1  0  0  0  0
 19 22  1  0  0  0  0
  1 23  1  0  0  0  0
 23 24  1  0  0  0  0
 23 25  1  0  0  0  0
 23 26  1  0  0  0  0
M  END
> <VM2 Rank>
97

> <Conf_Id>
269

> <Probability>
0.11

> <Sum Probability>
98.24

> <Delta G>
2.511

> <G>
77.977

> <E>
45.676

> <-TS>
32.301

> <U+W>
24.214

> <U>
73.665

> <W>
-49.452

> <W(PB)>
-51.661

> <W(SA)>
2.210

> <Valence>
4.363

> <Coulomb>
68.783

> <VdW>
0.520

> <VdW6>
-7.471

> <VdW12>
7.991

> <Bond>
0.232

> <Angle>
1.227

> <Pdih>
2.904

> <Idih>
0.000

> <Tether>
0.000

$$$$
VeraChem MOL file


 26 25  0  0  0  0  0  0  0  0999 V2000     
   19.2285   19.0674   25.5885 N   0  3  0  0  0  0  0  0  0  0  0  0
   18.9727   18.1725   25.1454 H   0  0  0  0  0  0  0  0  0  0  0  0
   18.3495   19.4330   25.9877 H   0  0  0  0  0  0  0  0  0  0  0  0
   19.7540   20.0345   24.5397 C   0  0  0  0  0  0  0  0  0  0  0  0
   20.0402   20.9565   25.0520 H   0  0  0  0  0  0  0  0  0  0  0  0
   18.9256   20.2682   23.8664 H   0  0  0  0  0  0  0  0  0  0  0  0
   20.9465   19.5125   23.7072 C   0  0  0  0  0  0  0  0  0  0  0  0
   21.2540   20.2959   23.0031 H   0  0  0  0  0  0  0  0  0  0  0  0
   21.8096   19.3521   24.3660 H   0  0  0  0  0  0  0  0  0  0  0  0
   20.6463   18.2034   22.9312 C   0  0  0  0  0  0  0  0  0  0  0  0
   20.4931   17.3860   23.6484 H   0  0  0  0  0  0  0  0  0  0  0  0
   21.5362   17.9194   22.3540 H   0  0  0  0  0  0  0  0  0  0  0  0
   19.4172   18.2746   21.9850 C   0  0  0  0  0  0  0  0  0  0  0  0
   19.3052   17.3043   21.4820 H   0  0  0  0  0  0  0  0  0  0  0  0
   18.5037   18.4054   22.5801 H   0  0  0  0  0  0  0  0  0  0  0  0
   19.4776   19.3901   20.9104 C   0  0  0  0  0  0  0  0  0  0  0  0
   19.4882   20.3786   21.3888 H   0  0  0  0  0  0  0  0  0  0  0  0
   18.5539   19.3538   20.3161 H   0  0  0  0  0  0  0  0  0  0  0  0
   20.6872   19.2590   19.9574 C   0  0  0  0  0  0  0  0  0  0  0  0
   20.7058   18.2723   19.4768 H   0  0  0  0  0  0  0  0  0  0  0  0
   21.6362   19.4001   20.4894 H   0  0  0  0  0  0  0  0  0  0  0  0
   20.6367   20.0172   19.1652 H   0  0  0  0  0  0  0  0  0  0  0  0
   20.2508   18.8485   26.6976 C   0  0  0  0  0  0  0  0  0  0  0  0
   21.1540   18.4053   26.2736 H   0  0  0  0  0  0  0  0  0  0  0  0
   20.4903   19.8089   27.1592 H   0  0  0  0  0  0  0  0  0  0  0  0
   19.8275   18.1750   27.4461 H   0  0  0  0  0  0  0  0  0  0  0  0
  1  2  1  0  0  0  0
  1  3  1  0  0  0  0
  1  4  1  0  0  0  0
  4  5  1  0  0  0  0
  4  6  1  0  0  0  0
  4  7  1  0  0  0  0
  7  8  1  0  0  0  0
  7  9  1  0  0  0  0
  7 10  1  0  0  0  0
 10 11  1  0  0  0  0
 10 12  1  0  0  0  0
 10 13  1  0  0  0  0
 13 14  1  0  0  0  0
 13 15  1  0  0  0  0
 13 16  1  0  0  0  0
 16 17  1  0  0  0  0
 16 18  1  0  0  0  0
 16 19  1  0  0  0  0
 19 20  1  0  0  0  0
 19 21  1  0  0  0  0
 19 22  1  0  0  0  0
  1 23  1  0  0  0  0
 23 24  1  0  0  0  0
 23 25  1  0  0  0  0
 23 26  1  0  0  0  0
M  END
> <VM2 Rank>
98

> <Conf_Id>
683

> <Probability>
0.10

> <Sum Probability>
98.34

> <Delta G>
2.568

> <G>
78.034

> <E>
44.793

> <-TS>
33.241

> <U+W>
23.331

> <U>
73.340

> <W>
-50.009

> <W(PB)>
-52.177

> <W(SA)>
2.168

> <Valence>
3.289

> <Coulomb>
69.804

> <VdW>
0.247

> <VdW6>
-9.371

> <VdW12>
9.618

> <Bond>
0.294

> <Angle>
1.399

> <Pdih>
1.596

> <Idih>
0.000

> <Tether>
0.000

$$$$
VeraChem MOL file


 26 25  0  0  0  0  0  0  0  0999 V2000     
   20.6273   18.9467   26.0631 N   0  3  0  0  0  0  0  0  0  0  0  0
   21.5353   18.9710   25.5748 H   0  0  0  0  0  0  0  0  0  0  0  0
   20.8263   18.5016   26.9731 H   0  0  0  0  0  0  0  0  0  0  0  0
   19.6350   18.0901   25.2926 C   0  0  0  0  0  0  0  0  0  0  0  0
   18.6250   18.3950   25.5777 H   0  0  0  0  0  0  0  0  0  0  0  0
   19.7795   17.0610   25.6316 H   0  0  0  0  0  0  0  0  0  0  0  0
   19.7904   18.1117   23.7554 C   0  0  0  0  0  0  0  0  0  0  0  0
   20.8001   17.7710   23.4941 H   0  0  0  0  0  0  0  0  0  0  0  0
   19.0946   17.3737   23.3348 H   0  0  0  0  0  0  0  0  0  0  0  0
   19.5099   19.4938   23.1154 C   0  0  0  0  0  0  0  0  0  0  0  0
   20.2953   20.2047   23.4033 H   0  0  0  0  0  0  0  0  0  0  0  0
   18.5656   19.8892   23.5146 H   0  0  0  0  0  0  0  0  0  0  0  0
   19.4114   19.4489   21.5705 C   0  0  0  0  0  0  0  0  0  0  0  0
   18.6080   18.7613   21.2721 H   0  0  0  0  0  0  0  0  0  0  0  0
   19.1138   20.4437   21.2111 H   0  0  0  0  0  0  0  0  0  0  0  0
   20.7331   19.0382   20.8788 C   0  0  0  0  0  0  0  0  0  0  0  0
   21.0108   18.0161   21.1685 H   0  0  0  0  0  0  0  0  0  0  0  0
   21.5472   19.6965   21.2130 H   0  0  0  0  0  0  0  0  0  0  0  0
   20.6170   19.1090   19.3411 C   0  0  0  0  0  0  0  0  0  0  0  0
   19.8301   18.4377   18.9734 H   0  0  0  0  0  0  0  0  0  0  0  0
   21.5615   18.8122   18.8670 H   0  0  0  0  0  0  0  0  0  0  0  0
   20.3796   20.1281   19.0090 H   0  0  0  0  0  0  0  0  0  0  0  0
   20.0839   20.3516   26.3000 C   0  0  0  0  0  0  0  0  0  0  0  0
   20.8138   20.9232   26.8777 H   0  0  0  0  0  0  0  0  0  0  0  0
   19.9073   20.8446   25.3434 H   0  0  0  0  0  0  0  0  0  0  0  0
   19.1473   20.2830   26.8575 H   0  0  0  0  0  0  0  0  0  0  0  0
  1  2  1  0  0  0  0
  1  3  1  0  0  0  0
  1  4  1  0  0  0  0
  4  5  1  0  0  0  0
  4  6  1  0  0  0  0
  4  7  1  0  0  0  0
  7  8  1  0  0  0  0
  7  9  1  0  0  0  0
  7 10  1  0  0  0  0
 10 11  1  0  0  0  0
 10 12  1  0  0  0  0
 10 13  1  0  0  0  0
 13 14  1  0  0  0  0
 13 15  1  0  0  0  0
 13 16  1  0  0  0  0
 16 17  1  0  0  0  0
 16 18  1  0  0  0  0
 16 19  1  0  0  0  0
 19 20  1  0  0  0  0
 19 21  1  0  0  0  0
 19 22  1  0  0  0  0
  1 23  1  0  0  0  0
 23 24  1  0  0  0  0
 23 25  1  0  0  0  0
 23 26  1  0  0  0  0
M  END
> <VM2 Rank>
99

> <Conf_Id>
1368

> <Probability>
0.07

> <Sum Probability>
98.41

> <Delta G>
2.717

> <G>
78.183

> <E>
45.550

> <-TS>
32.633

> <U+W>
24.089

> <U>
73.664

> <W>
-49.575

> <W(PB)>
-51.836

> <W(SA)>
2.261

> <Valence>
4.219

> <Coulomb>
69.065

> <VdW>
0.380

> <VdW6>
-7.612

> <VdW12>
7.992

> <Bond>
0.225

> <Angle>
1.066

> <Pdih>
2.927

> <Idih>
0.000

> <Tether>
0.000

$$$$
VeraChem MOL file


 26 25  0  0  0  0  0  0  0  0999 V2000     
   19.6046   19.2090   26.0741 N   0  3  0  0  0  0  0  0  0  0  0  0
   19.6472   19.0715   27.0963 H   0  0  0  0  0  0  0  0  0  0  0  0
   18.6422   18.9487   25.8106 H   0  0  0  0  0  0  0  0  0  0  0  0
   20.6056   18.2834   25.4010 C   0  0  0  0  0  0  0  0  0  0  0  0
   20.7357   17.4249   26.0648 H   0  0  0  0  0  0  0  0  0  0  0  0
   21.5647   18.8036   25.3390 H   0  0  0  0  0  0  0  0  0  0  0  0
   20.1905   17.7528   24.0103 C   0  0  0  0  0  0  0  0  0  0  0  0
   20.9494   17.0292   23.6844 H   0  0  0  0  0  0  0  0  0  0  0  0
   19.2495   17.1942   24.1000 H   0  0  0  0  0  0  0  0  0  0  0  0
   20.0458   18.8536   22.9334 C   0  0  0  0  0  0  0  0  0  0  0  0
   20.9557   19.4678   22.9218 H   0  0  0  0  0  0  0  0  0  0  0  0
   19.2093   19.5156   23.1920 H   0  0  0  0  0  0  0  0  0  0  0  0
   19.7963   18.2530   21.5289 C   0  0  0  0  0  0  0  0  0  0  0  0
   20.6541   17.6337   21.2322 H   0  0  0  0  0  0  0  0  0  0  0  0
   18.9300   17.5786   21.5755 H   0  0  0  0  0  0  0  0  0  0  0  0
   19.5299   19.3207   20.4401 C   0  0  0  0  0  0  0  0  0  0  0  0
   18.6553   19.9252   20.7184 H   0  0  0  0  0  0  0  0  0  0  0  0
   19.2647   18.8106   19.5035 H   0  0  0  0  0  0  0  0  0  0  0  0
   20.7394   20.2468   20.1779 C   0  0  0  0  0  0  0  0  0  0  0  0
   20.9676   20.8698   21.0515 H   0  0  0  0  0  0  0  0  0  0  0  0
   20.5313   20.9217   19.3375 H   0  0  0  0  0  0  0  0  0  0  0  0
   21.6354   19.6647   19.9264 H   0  0  0  0  0  0  0  0  0  0  0  0
   19.8959   20.6707   25.7513 C   0  0  0  0  0  0  0  0  0  0  0  0
   19.8207   20.8327   24.6754 H   0  0  0  0  0  0  0  0  0  0  0  0
   19.1698   21.3015   26.2690 H   0  0  0  0  0  0  0  0  0  0  0  0
   20.9042   20.9172   26.0910 H   0  0  0  0  0  0  0  0  0  0  0  0
  1  2  1  0  0  0  0
  1  3  1  0  0  0  0
  1  4  1  0  0  0  0
  4  5  1  0  0  0  0
  4  6  1  0  0  0  0
  4  7  1  0  0  0  0
  7  8  1  0  0  0  0
  7  9  1  0  0  0  0
  7 10  1  0  0  0  0
 10 11  1  0  0  0  0
 10 12  1  0  0  0  0
 10 13  1  0  0  0  0
 13 14  1  0  0  0  0
 13 15  1  0  0  0  0
 13 16  1  0  0  0  0
 16 17  1  0  0  0  0
 16 18  1  0  0  0  0
 16 19  1  0  0  0  0
 19 20  1  0  0  0  0
 19 21  1  0  0  0  0
 19 22  1  0  0  0  0
  1 23  1  0  0  0  0
 23 24  1  0  0  0  0
 23 25  1  0  0  0  0
 23 26  1  0  0  0  0
M  END
> <VM2 Rank>
100

> <Conf_Id>
846

> <Probability>
0.07

> <Sum Probability>
98.49

> <Delta G>
2.735

> <G>
78.201

> <E>
45.572

> <-TS>
32.629

> <U+W>
24.110

> <U>
73.569

> <W>
-49.459

> <W(PB)>
-51.695

> <W(SA)>
2.236

> <Valence>
4.232

> <Coulomb>
68.955

> <VdW>
0.382

> <VdW6>
-7.610

> <VdW12>
7.992

> <Bond>
0.222

> <Angle>
1.074

> <Pdih>
2.936

> <Idih>
0.000

> <Tether>
0.000

$$$$
VeraChem MOL file


 26 25  0  0  0  0  0  0  0  0999 V2000     
   20.2645   19.2766   26.0976 N   0  3  0  0  0  0  0  0  0  0  0  0
   21.2758   19.2191   25.9041 H   0  0  0  0  0  0  0  0  0  0  0  0
   20.1792   19.1259   27.1152 H   0  0  0  0  0  0  0  0  0  0  0  0
   19.5219   18.1722   25.3625 C   0  0  0  0  0  0  0  0  0  0  0  0
   18.4839   18.4873   25.2297 H   0  0  0  0  0  0  0  0  0  0  0  0
   19.5226   17.3003   26.0217 H   0  0  0  0  0  0  0  0  0  0  0  0
   20.1324   17.7469   24.0083 C   0  0  0  0  0  0  0  0  0  0  0  0
   21.1586   17.3903   24.1676 H   0  0  0  0  0  0  0  0  0  0  0  0
   19.5610   16.8866   23.6351 H   0  0  0  0  0  0  0  0  0  0  0  0
   20.1257   18.8618   22.9362 C   0  0  0  0  0  0  0  0  0  0  0  0
   20.7901   19.6781   23.2480 H   0  0  0  0  0  0  0  0  0  0  0  0
   19.1131   19.2785   22.8564 H   0  0  0  0  0  0  0  0  0  0  0  0
   20.5898   18.3346   21.5570 C   0  0  0  0  0  0  0  0  0  0  0  0
   21.5696   17.8500   21.6691 H   0  0  0  0  0  0  0  0  0  0  0  0
   19.8987   17.5561   21.2054 H   0  0  0  0  0  0  0  0  0  0  0  0
   20.7094   19.4420   20.4819 C   0  0  0  0  0  0  0  0  0  0  0  0
   21.1377   19.0032   19.5699 H   0  0  0  0  0  0  0  0  0  0  0  0
   21.4211   20.2097   20.8165 H   0  0  0  0  0  0  0  0  0  0  0  0
   19.3582   20.1047   20.1288 C   0  0  0  0  0  0  0  0  0  0  0  0
   19.4832   20.8138   19.3002 H   0  0  0  0  0  0  0  0  0  0  0  0
   18.9475   20.6620   20.9797 H   0  0  0  0  0  0  0  0  0  0  0  0
   18.6191   19.3544   19.8193 H   0  0  0  0  0  0  0  0  0  0  0  0
   19.7060   20.6511   25.7448 C   0  0  0  0  0  0  0  0  0  0  0  0
   19.8220   20.8328   24.6756 H   0  0  0  0  0  0  0  0  0  0  0  0
   18.6474   20.6854   26.0111 H   0  0  0  0  0  0  0  0  0  0  0  0
   20.2509   21.4124   26.3075 H   0  0  0  0  0  0  0  0  0  0  0  0
  1  2  1  0  0  0  0
  1  3  1  0  0  0  0
  1  4  1  0  0  0  0
  4  5  1  0  0  0  0
  4  6  1  0  0  0  0
  4  7  1  0  0  0  0
  7  8  1  0  0  0  0
  7  9  1  0  0  0  0
  7 10  1  0  0  0  0
 10 11  1  0  0  0  0
 10 12  1  0  0  0  0
 10 13  1  0  0  0  0
 13 14  1  0  0  0  0
 13 15  1  0  0  0  0
 13 16  1  0  0  0  0
 16 17  1  0  0  0  0
 16 18  1  0  0  0  0
 16 19  1  0  0  0  0
 19 20  1  0  0  0  0
 19 21  1  0  0  0  0
 19 22  1  0  0  0  0
  1 23  1  0  0  0  0
 23 24  1  0  0  0  0
 23 25  1  0  0  0  0
 23 26  1  0  0  0  0
M  END
> <VM2 Rank>
101

> <Conf_Id>
1355

> <Probability>
0.07

> <Sum Probability>
98.56

> <Delta G>
2.740

> <G>
78.206

> <E>
45.578

> <-TS>
32.629

> <U+W>
24.116

> <U>
73.569

> <W>
-49.453

> <W(PB)>
-51.698

> <W(SA)>
2.245

> <Valence>
4.232

> <Coulomb>
68.955

> <VdW>
0.382

> <VdW6>
-7.610

> <VdW12>
7.992

> <Bond>
0.222

> <Angle>
1.074

> <Pdih>
2.936

> <Idih>
0.000

> <Tether>
0.000

$$$$
VeraChem MOL file


 26 25  0  0  0  0  0  0  0  0999 V2000     
   19.4549   18.7676   25.9583 N   0  3  0  0  0  0  0  0  0  0  0  0
   19.4433   18.5961   26.9762 H   0  0  0  0  0  0  0  0  0  0  0  0
   18.9920   17.9441   25.5446 H   0  0  0  0  0  0  0  0  0  0  0  0
   20.8955   18.8597   25.4811 C   0  0  0  0  0  0  0  0  0  0  0  0
   21.4960   18.2703   26.1786 H   0  0  0  0  0  0  0  0  0  0  0  0
   21.2174   19.9009   25.5634 H   0  0  0  0  0  0  0  0  0  0  0  0
   21.1596   18.3263   24.0551 C   0  0  0  0  0  0  0  0  0  0  0  0
   22.2425   18.3623   23.8767 H   0  0  0  0  0  0  0  0  0  0  0  0
   20.8734   17.2675   24.0035 H   0  0  0  0  0  0  0  0  0  0  0  0
   20.4352   19.1188   22.9417 C   0  0  0  0  0  0  0  0  0  0  0  0
   20.6542   20.1899   23.0509 H   0  0  0  0  0  0  0  0  0  0  0  0
   19.3516   18.9949   23.0566 H   0  0  0  0  0  0  0  0  0  0  0  0
   20.8585   18.6448   21.5303 C   0  0  0  0  0  0  0  0  0  0  0  0
   21.9521   18.7066   21.4429 H   0  0  0  0  0  0  0  0  0  0  0  0
   20.5979   17.5852   21.4015 H   0  0  0  0  0  0  0  0  0  0  0  0
   20.2279   19.4751   20.3859 C   0  0  0  0  0  0  0  0  0  0  0  0
   20.6592   19.1432   19.4311 H   0  0  0  0  0  0  0  0  0  0  0  0
   20.5060   20.5325   20.4970 H   0  0  0  0  0  0  0  0  0  0  0  0
   18.6893   19.3476   20.3081 C   0  0  0  0  0  0  0  0  0  0  0  0
   18.3044   19.8762   19.4265 H   0  0  0  0  0  0  0  0  0  0  0  0
   18.2030   19.7820   21.1902 H   0  0  0  0  0  0  0  0  0  0  0  0
   18.3834   18.2964   20.2286 H   0  0  0  0  0  0  0  0  0  0  0  0
   18.6871   20.0502   25.6563 C   0  0  0  0  0  0  0  0  0  0  0  0
   17.6659   19.9509   26.0310 H   0  0  0  0  0  0  0  0  0  0  0  0
   19.1809   20.8873   26.1544 H   0  0  0  0  0  0  0  0  0  0  0  0
   18.6673   20.2232   24.5797 H   0  0  0  0  0  0  0  0  0  0  0  0
  1  2  1  0  0  0  0
  1  3  1  0  0  0  0
  1  4  1  0  0  0  0
  4  5  1  0  0  0  0
  4  6  1  0  0  0  0
  4  7  1  0  0  0  0
  7  8  1  0  0  0  0
  7  9  1  0  0  0  0
  7 10  1  0  0  0  0
 10 11  1  0  0  0  0
 10 12  1  0  0  0  0
 10 13  1  0  0  0  0
 13 14  1  0  0  0  0
 13 15  1  0  0  0  0
 13 16  1  0  0  0  0
 16 17  1  0  0  0  0
 16 18  1  0  0  0  0
 16 19  1  0  0  0  0
 19 20  1  0  0  0  0
 19 21  1  0  0  0  0
 19 22  1  0  0  0  0
  1 23  1  0  0  0  0
 23 24  1  0  0  0  0
 23 25  1  0  0  0  0
 23 26  1  0  0  0  0
M  END
> <VM2 Rank>
102

> <Conf_Id>
1330

> <Probability>
0.07

> <Sum Probability>
98.63

> <Delta G>
2.742

> <G>
78.208

> <E>
45.580

> <-TS>
32.628

> <U+W>
24.118

> <U>
73.676

> <W>
-49.558

> <W(PB)>
-51.786

> <W(SA)>
2.228

> <Valence>
4.237

> <Coulomb>
69.060

> <VdW>
0.379

> <VdW6>
-7.630

> <VdW12>
8.009

> <Bond>
0.224

> <Angle>
1.074

> <Pdih>
2.938

> <Idih>
0.000

> <Tether>
0.000

$$$$
VeraChem MOL file


 26 25  0  0  0  0  0  0  0  0999 V2000     
   20.7843   18.6201   25.3679 N   0  3  0  0  0  0  0  0  0  0  0  0
   21.5221   18.5450   26.0861 H   0  0  0  0  0  0  0  0  0  0  0  0
   21.2589   18.4222   24.4755 H   0  0  0  0  0  0  0  0  0  0  0  0
   20.2290   20.0344   25.3576 C   0  0  0  0  0  0  0  0  0  0  0  0
   21.0785   20.7177   25.2797 H   0  0  0  0  0  0  0  0  0  0  0  0
   19.7573   20.2009   26.3293 H   0  0  0  0  0  0  0  0  0  0  0  0
   19.2131   20.3685   24.2396 C   0  0  0  0  0  0  0  0  0  0  0  0
   18.3397   19.7067   24.2999 H   0  0  0  0  0  0  0  0  0  0  0  0
   18.8327   21.3782   24.4436 H   0  0  0  0  0  0  0  0  0  0  0  0
   19.8035   20.3619   22.8057 C   0  0  0  0  0  0  0  0  0  0  0  0
   20.7968   20.8317   22.8087 H   0  0  0  0  0  0  0  0  0  0  0  0
   19.1683   20.9980   22.1735 H   0  0  0  0  0  0  0  0  0  0  0  0
   19.8757   18.9571   22.1581 C   0  0  0  0  0  0  0  0  0  0  0  0
   20.5459   18.3043   22.7273 H   0  0  0  0  0  0  0  0  0  0  0  0
   18.8813   18.4902   22.1836 H   0  0  0  0  0  0  0  0  0  0  0  0
   20.3703   19.0257   20.6960 C   0  0  0  0  0  0  0  0  0  0  0  0
   21.3634   19.4954   20.6618 H   0  0  0  0  0  0  0  0  0  0  0  0
   19.6979   19.6638   20.1055 H   0  0  0  0  0  0  0  0  0  0  0  0
   20.4439   17.6254   20.0505 C   0  0  0  0  0  0  0  0  0  0  0  0
   21.1373   16.9737   20.5978 H   0  0  0  0  0  0  0  0  0  0  0  0
   20.7956   17.6950   19.0129 H   0  0  0  0  0  0  0  0  0  0  0  0
   19.4577   17.1432   20.0399 H   0  0  0  0  0  0  0  0  0  0  0  0
   19.6882   17.5968   25.6416 C   0  0  0  0  0  0  0  0  0  0  0  0
   19.2174   17.8237   26.6006 H   0  0  0  0  0  0  0  0  0  0  0  0
   18.9446   17.6423   24.8434 H   0  0  0  0  0  0  0  0  0  0  0  0
   20.1309   16.5989   25.6750 H   0  0  0  0  0  0  0  0  0  0  0  0
  1  2  1  0  0  0  0
  1  3  1  0  0  0  0
  1  4  1  0  0  0  0
  4  5  1  0  0  0  0
  4  6  1  0  0  0  0
  4  7  1  0  0  0  0
  7  8  1  0  0  0  0
  7  9  1  0  0  0  0
  7 10  1  0  0  0  0
 10 11  1  0  0  0  0
 10 12  1  0  0  0  0
 10 13  1  0  0  0  0
 13 14  1  0  0  0  0
 13 15  1  0  0  0  0
 13 16  1  0  0  0  0
 16 17  1  0  0  0  0
 16 18  1  0  0  0  0
 16 19  1  0  0  0  0
 19 20  1  0  0  0  0
 19 21  1  0  0  0  0
 19 22  1  0  0  0  0
  1 23  1  0  0  0  0
 23 24  1  0  0  0  0
 23 25  1  0  0  0  0
 23 26  1  0  0  0  0
M  END
> <VM2 Rank>
103

> <Conf_Id>
972

> <Probability>
0.06

> <Sum Probability>
98.69

> <Delta G>
2.817

> <G>
78.283

> <E>
45.931

> <-TS>
32.352

> <U+W>
24.469

> <U>
74.362

> <W>
-49.893

> <W(PB)>
-52.133

> <W(SA)>
2.240

> <Valence>
3.849

> <Coulomb>
70.386

> <VdW>
0.128

> <VdW6>
-7.955

> <VdW12>
8.083

> <Bond>
0.231

> <Angle>
1.284

> <Pdih>
2.333

> <Idih>
0.000

> <Tether>
0.000

$$$$
VeraChem MOL file


 26 25  0  0  0  0  0  0  0  0999 V2000     
   19.9716   18.6888   26.2346 N   0  3  0  0  0  0  0  0  0  0  0  0
   20.6342   17.9340   26.0005 H   0  0  0  0  0  0  0  0  0  0  0  0
   19.5243   18.3871   27.1147 H   0  0  0  0  0  0  0  0  0  0  0  0
   18.9133   18.8179   25.1509 C   0  0  0  0  0  0  0  0  0  0  0  0
   18.5325   19.8422   25.1647 H   0  0  0  0  0  0  0  0  0  0  0  0
   18.0917   18.1545   25.4332 H   0  0  0  0  0  0  0  0  0  0  0  0
   19.3694   18.4330   23.7257 C   0  0  0  0  0  0  0  0  0  0  0  0
   19.7024   17.3868   23.7208 H   0  0  0  0  0  0  0  0  0  0  0  0
   18.4878   18.4802   23.0752 H   0  0  0  0  0  0  0  0  0  0  0  0
   20.4884   19.3409   23.1568 C   0  0  0  0  0  0  0  0  0  0  0  0
   21.3818   19.2467   23.7873 H   0  0  0  0  0  0  0  0  0  0  0  0
   20.1775   20.3935   23.2087 H   0  0  0  0  0  0  0  0  0  0  0  0
   20.8951   18.9893   21.7041 C   0  0  0  0  0  0  0  0  0  0  0  0
   21.7896   19.5722   21.4443 H   0  0  0  0  0  0  0  0  0  0  0  0
   21.1906   17.9325   21.6489 H   0  0  0  0  0  0  0  0  0  0  0  0
   19.7903   19.2793   20.6599 C   0  0  0  0  0  0  0  0  0  0  0  0
   19.4568   20.3223   20.7522 H   0  0  0  0  0  0  0  0  0  0  0  0
   18.9129   18.6467   20.8474 H   0  0  0  0  0  0  0  0  0  0  0  0
   20.2880   19.0277   19.2205 C   0  0  0  0  0  0  0  0  0  0  0  0
   20.6015   17.9839   19.0881 H   0  0  0  0  0  0  0  0  0  0  0  0
   21.1415   19.6743   18.9784 H   0  0  0  0  0  0  0  0  0  0  0  0
   19.4922   19.2351   18.4933 H   0  0  0  0  0  0  0  0  0  0  0  0
   20.6919   20.0131   26.4645 C   0  0  0  0  0  0  0  0  0  0  0  0
   21.1892   20.3264   25.5456 H   0  0  0  0  0  0  0  0  0  0  0  0
   19.9624   20.7688   26.7637 H   0  0  0  0  0  0  0  0  0  0  0  0
   21.4322   19.8835   27.2571 H   0  0  0  0  0  0  0  0  0  0  0  0
  1  2  1  0  0  0  0
  1  3  1  0  0  0  0
  1  4  1  0  0  0  0
  4  5  1  0  0  0  0
  4  6  1  0  0  0  0
  4  7  1  0  0  0  0
  7  8  1  0  0  0  0
  7  9  1  0  0  0  0
  7 10  1  0  0  0  0
 10 11  1  0  0  0  0
 10 12  1  0  0  0  0
 10 13  1  0  0  0  0
 13 14  1  0  0  0  0
 13 15  1  0  0  0  0
 13 16  1  0  0  0  0
 16 17  1  0  0  0  0
 16 18  1  0  0  0  0
 16 19  1  0  0  0  0
 19 20  1  0  0  0  0
 19 21  1  0  0  0  0
 19 22  1  0  0  0  0
  1 23  1  0  0  0  0
 23 24  1  0  0  0  0
 23 25  1  0  0  0  0
 23 26  1  0  0  0  0
M  END
> <VM2 Rank>
104

> <Conf_Id>
1293

> <Probability>
0.06

> <Sum Probability>
98.75

> <Delta G>
2.832

> <G>
78.298

> <E>
45.752

> <-TS>
32.546

> <U+W>
24.290

> <U>
73.757

> <W>
-49.467

> <W(PB)>
-51.698

> <W(SA)>
2.231

> <Valence>
4.422

> <Coulomb>
68.887

> <VdW>
0.448

> <VdW6>
-7.490

> <VdW12>
7.938

> <Bond>
0.232

> <Angle>
1.146

> <Pdih>
3.045

> <Idih>
0.000

> <Tether>
0.000

$$$$
VeraChem MOL file


 26 25  0  0  0  0  0  0  0  0999 V2000     
   19.5320   18.8526   25.9064 N   0  3  0  0  0  0  0  0  0  0  0  0
   20.2374   18.4852   26.5638 H   0  0  0  0  0  0  0  0  0  0  0  0
   18.8990   18.0611   25.7126 H   0  0  0  0  0  0  0  0  0  0  0  0
   20.2000   19.3142   24.6270 C   0  0  0  0  0  0  0  0  0  0  0  0
   20.8694   20.1404   24.8791 H   0  0  0  0  0  0  0  0  0  0  0  0
   19.4204   19.6969   23.9667 H   0  0  0  0  0  0  0  0  0  0  0  0
   20.9992   18.1998   23.9222 C   0  0  0  0  0  0  0  0  0  0  0  0
   21.7689   17.8407   24.6182 H   0  0  0  0  0  0  0  0  0  0  0  0
   20.3498   17.3407   23.7076 H   0  0  0  0  0  0  0  0  0  0  0  0
   21.6944   18.6796   22.6229 C   0  0  0  0  0  0  0  0  0  0  0  0
   22.5849   18.0562   22.4619 H   0  0  0  0  0  0  0  0  0  0  0  0
   22.0694   19.7043   22.7530 H   0  0  0  0  0  0  0  0  0  0  0  0
   20.8234   18.5891   21.3427 C   0  0  0  0  0  0  0  0  0  0  0  0
   21.4435   18.8878   20.4861 H   0  0  0  0  0  0  0  0  0  0  0  0
   20.5429   17.5419   21.1641 H   0  0  0  0  0  0  0  0  0  0  0  0
   19.5487   19.4641   21.3668 C   0  0  0  0  0  0  0  0  0  0  0  0
   19.8060   20.4920   21.6585 H   0  0  0  0  0  0  0  0  0  0  0  0
   18.8448   19.0791   22.1160 H   0  0  0  0  0  0  0  0  0  0  0  0
   18.8447   19.4831   19.9931 C   0  0  0  0  0  0  0  0  0  0  0  0
   17.9370   20.0992   20.0312 H   0  0  0  0  0  0  0  0  0  0  0  0
   18.5519   18.4707   19.6857 H   0  0  0  0  0  0  0  0  0  0  0  0
   19.5011   19.8994   19.2179 H   0  0  0  0  0  0  0  0  0  0  0  0
   18.7656   20.0075   26.5360 C   0  0  0  0  0  0  0  0  0  0  0  0
   18.0037   20.3572   25.8358 H   0  0  0  0  0  0  0  0  0  0  0  0
   18.2898   19.6620   27.4565 H   0  0  0  0  0  0  0  0  0  0  0  0
   19.4608   20.8189   26.7623 H   0  0  0  0  0  0  0  0  0  0  0  0
  1  2  1  0  0  0  0
  1  3  1  0  0  0  0
  1  4  1  0  0  0  0
  4  5  1  0  0  0  0
  4  6  1  0  0  0  0
  4  7  1  0  0  0  0
  7  8  1  0  0  0  0
  7  9  1  0  0  0  0
  7 10  1  0  0  0  0
 10 11  1  0  0  0  0
 10 12  1  0  0  0  0
 10 13  1  0  0  0  0
 13 14  1  0  0  0  0
 13 15  1  0  0  0  0
 13 16  1  0  0  0  0
 16 17  1  0  0  0  0
 16 18  1  0  0  0  0
 16 19  1  0  0  0  0
 19 20  1  0  0  0  0
 19 21  1  0  0  0  0
 19 22  1  0  0  0  0
  1 23  1  0  0  0  0
 23 24  1  0  0  0  0
 23 25  1  0  0  0  0
 23 26  1  0  0  0  0
M  END
> <VM2 Rank>
105

> <Conf_Id>
1306

> <Probability>
0.05

> <Sum Probability>
98.81

> <Delta G>
2.918

> <G>
78.384

> <E>
45.898

> <-TS>
32.486

> <U+W>
24.436

> <U>
73.891

> <W>
-49.455

> <W(PB)>
-51.734

> <W(SA)>
2.278

> <Valence>
4.111

> <Coulomb>
69.672

> <VdW>
0.108

> <VdW6>
-6.998

> <VdW12>
7.106

> <Bond>
0.196

> <Angle>
1.122

> <Pdih>
2.794

> <Idih>
0.000

> <Tether>
0.000

$$$$
VeraChem MOL file


 26 25  0  0  0  0  0  0  0  0999 V2000     
   19.7575   18.6752   26.3424 N   0  3  0  0  0  0  0  0  0  0  0  0
   19.9976   17.6719   26.3454 H   0  0  0  0  0  0  0  0  0  0  0  0
   19.2211   18.8190   27.2127 H   0  0  0  0  0  0  0  0  0  0  0  0
   18.8688   18.9972   25.1486 C   0  0  0  0  0  0  0  0  0  0  0  0
   18.6296   20.0633   25.1704 H   0  0  0  0  0  0  0  0  0  0  0  0
   17.9384   18.4451   25.3046 H   0  0  0  0  0  0  0  0  0  0  0  0
   19.4343   18.6062   23.7649 C   0  0  0  0  0  0  0  0  0  0  0  0
   20.0821   17.7248   23.8602 H   0  0  0  0  0  0  0  0  0  0  0  0
   18.5880   18.3029   23.1362 H   0  0  0  0  0  0  0  0  0  0  0  0
   20.1885   19.7661   23.0660 C   0  0  0  0  0  0  0  0  0  0  0  0
   20.9797   20.1457   23.7231 H   0  0  0  0  0  0  0  0  0  0  0  0
   19.5000   20.6068   22.9037 H   0  0  0  0  0  0  0  0  0  0  0  0
   20.8353   19.3599   21.7185 C   0  0  0  0  0  0  0  0  0  0  0  0
   21.4378   20.2035   21.3541 H   0  0  0  0  0  0  0  0  0  0  0  0
   21.5363   18.5298   21.8822 H   0  0  0  0  0  0  0  0  0  0  0  0
   19.8091   18.9689   20.6284 C   0  0  0  0  0  0  0  0  0  0  0  0
   19.0746   19.7766   20.5029 H   0  0  0  0  0  0  0  0  0  0  0  0
   19.2505   18.0749   20.9358 H   0  0  0  0  0  0  0  0  0  0  0  0
   20.4959   18.6877   19.2748 C   0  0  0  0  0  0  0  0  0  0  0  0
   21.0326   19.5740   18.9120 H   0  0  0  0  0  0  0  0  0  0  0  0
   19.7547   18.4088   18.5145 H   0  0  0  0  0  0  0  0  0  0  0  0
   21.2160   17.8636   19.3612 H   0  0  0  0  0  0  0  0  0  0  0  0
   21.0186   19.5289   26.3736 C   0  0  0  0  0  0  0  0  0  0  0  0
   20.7394   20.5844   26.3472 H   0  0  0  0  0  0  0  0  0  0  0  0
   21.5708   19.3157   27.2916 H   0  0  0  0  0  0  0  0  0  0  0  0
   21.6395   19.2841   25.5099 H   0  0  0  0  0  0  0  0  0  0  0  0
  1  2  1  0  0  0  0
  1  3  1  0  0  0  0
  1  4  1  0  0  0  0
  4  5  1  0  0  0  0
  4  6  1  0  0  0  0
  4  7  1  0  0  0  0
  7  8  1  0  0  0  0
  7  9  1  0  0  0  0
  7 10  1  0  0  0  0
 10 11  1  0  0  0  0
 10 12  1  0  0  0  0
 10 13  1  0  0  0  0
 13 14  1  0  0  0  0
 13 15  1  0  0  0  0
 13 16  1  0  0  0  0
 16 17  1  0  0  0  0
 16 18  1  0  0  0  0
 16 19  1  0  0  0  0
 19 20  1  0  0  0  0
 19 21  1  0  0  0  0
 19 22  1  0  0  0  0
  1 23  1  0  0  0  0
 23 24  1  0  0  0  0
 23 25  1  0  0  0  0
 23 26  1  0  0  0  0
M  END
> <VM2 Rank>
106

> <Conf_Id>
163

> <Probability>
0.05

> <Sum Probability>
98.86

> <Delta G>
2.926

> <G>
78.392

> <E>
45.923

> <-TS>
32.469

> <U+W>
24.461

> <U>
73.840

> <W>
-49.380

> <W(PB)>
-51.644

> <W(SA)>
2.264

> <Valence>
4.494

> <Coulomb>
68.796

> <VdW>
0.550

> <VdW6>
-7.478

> <VdW12>
8.029

> <Bond>
0.238

> <Angle>
1.175

> <Pdih>
3.082

> <Idih>
0.000

> <Tether>
0.000

$$$$
VeraChem MOL file


 26 25  0  0  0  0  0  0  0  0999 V2000     
   20.0003   18.6917   26.2357 N   0  3  0  0  0  0  0  0  0  0  0  0
   20.4367   18.4806   27.1471 H   0  0  0  0  0  0  0  0  0  0  0  0
   19.5222   17.8202   25.9613 H   0  0  0  0  0  0  0  0  0  0  0  0
   21.0838   19.0399   25.2278 C   0  0  0  0  0  0  0  0  0  0  0  0
   22.0007   18.5544   25.5716 H   0  0  0  0  0  0  0  0  0  0  0  0
   21.2477   20.1199   25.2608 H   0  0  0  0  0  0  0  0  0  0  0  0
   20.8158   18.5810   23.7769 C   0  0  0  0  0  0  0  0  0  0  0  0
   21.7130   18.8100   23.1895 H   0  0  0  0  0  0  0  0  0  0  0  0
   20.7024   17.4892   23.7562 H   0  0  0  0  0  0  0  0  0  0  0  0
   19.5790   19.2480   23.1246 C   0  0  0  0  0  0  0  0  0  0  0  0
   19.6663   20.3413   23.1905 H   0  0  0  0  0  0  0  0  0  0  0  0
   18.6812   18.9707   23.6916 H   0  0  0  0  0  0  0  0  0  0  0  0
   19.3546   18.8318   21.6495 C   0  0  0  0  0  0  0  0  0  0  0  0
   19.2834   17.7375   21.5814 H   0  0  0  0  0  0  0  0  0  0  0  0
   18.3811   19.2237   21.3236 H   0  0  0  0  0  0  0  0  0  0  0  0
   20.4482   19.3465   20.6832 C   0  0  0  0  0  0  0  0  0  0  0  0
   21.4201   18.9032   20.9362 H   0  0  0  0  0  0  0  0  0  0  0  0
   20.5566   20.4348   20.7910 H   0  0  0  0  0  0  0  0  0  0  0  0
   20.1137   19.0097   19.2143 C   0  0  0  0  0  0  0  0  0  0  0  0
   20.0278   17.9251   19.0678 H   0  0  0  0  0  0  0  0  0  0  0  0
   20.9001   19.3789   18.5431 H   0  0  0  0  0  0  0  0  0  0  0  0
   19.1662   19.4721   18.9083 H   0  0  0  0  0  0  0  0  0  0  0  0
   19.0126   19.8412   26.4050 C   0  0  0  0  0  0  0  0  0  0  0  0
   19.5514   20.7268   26.7489 H   0  0  0  0  0  0  0  0  0  0  0  0
   18.5277   20.0538   25.4514 H   0  0  0  0  0  0  0  0  0  0  0  0
   18.2604   19.5590   27.1449 H   0  0  0  0  0  0  0  0  0  0  0  0
  1  2  1  0  0  0  0
  1  3  1  0  0  0  0
  1  4  1  0  0  0  0
  4  5  1  0  0  0  0
  4  6  1  0  0  0  0
  4  7  1  0  0  0  0
  7  8  1  0  0  0  0
  7  9  1  0  0  0  0
  7 10  1  0  0  0  0
 10 11  1  0  0  0  0
 10 12  1  0  0  0  0
 10 13  1  0  0  0  0
 13 14  1  0  0  0  0
 13 15  1  0  0  0  0
 13 16  1  0  0  0  0
 16 17  1  0  0  0  0
 16 18  1  0  0  0  0
 16 19  1  0  0  0  0
 19 20  1  0  0  0  0
 19 21  1  0  0  0  0
 19 22  1  0  0  0  0
  1 23  1  0  0  0  0
 23 24  1  0  0  0  0
 23 25  1  0  0  0  0
 23 26  1  0  0  0  0
M  END
> <VM2 Rank>
107

> <Conf_Id>
1053

> <Probability>
0.05

> <Sum Probability>
98.91

> <Delta G>
2.934

> <G>
78.400

> <E>
45.854

> <-TS>
32.546

> <U+W>
24.392

> <U>
73.757

> <W>
-49.365

> <W(PB)>
-51.644

> <W(SA)>
2.279

> <Valence>
4.422

> <Coulomb>
68.887

> <VdW>
0.448

> <VdW6>
-7.490

> <VdW12>
7.937

> <Bond>
0.232

> <Angle>
1.146

> <Pdih>
3.044

> <Idih>
0.000

> <Tether>
0.000

$$$$
VeraChem MOL file


 26 25  0  0  0  0  0  0  0  0999 V2000     
   20.4197   18.9434   25.9377 N   0  3  0  0  0  0  0  0  0  0  0  0
   21.2119   18.2981   25.7942 H   0  0  0  0  0  0  0  0  0  0  0  0
   19.7592   18.4358   26.5468 H   0  0  0  0  0  0  0  0  0  0  0  0
   19.7631   19.2694   24.6115 C   0  0  0  0  0  0  0  0  0  0  0  0
   20.4931   19.8069   24.0047 H   0  0  0  0  0  0  0  0  0  0  0  0
   18.9242   19.9411   24.8105 H   0  0  0  0  0  0  0  0  0  0  0  0
   19.2575   18.0215   23.8604 C   0  0  0  0  0  0  0  0  0  0  0  0
   20.0807   17.3132   23.6980 H   0  0  0  0  0  0  0  0  0  0  0  0
   18.5296   17.5088   24.5034 H   0  0  0  0  0  0  0  0  0  0  0  0
   18.5721   18.3599   22.5123 C   0  0  0  0  0  0  0  0  0  0  0  0
   17.9894   19.2866   22.6086 H   0  0  0  0  0  0  0  0  0  0  0  0
   17.8397   17.5704   22.2938 H   0  0  0  0  0  0  0  0  0  0  0  0
   19.5309   18.4569   21.2969 C   0  0  0  0  0  0  0  0  0  0  0  0
   20.0292   17.4893   21.1458 H   0  0  0  0  0  0  0  0  0  0  0  0
   18.9246   18.6301   20.3969 H   0  0  0  0  0  0  0  0  0  0  0  0
   20.5973   19.5715   21.4040 C   0  0  0  0  0  0  0  0  0  0  0  0
   21.3103   19.3315   22.2034 H   0  0  0  0  0  0  0  0  0  0  0  0
   20.1175   20.5239   21.6695 H   0  0  0  0  0  0  0  0  0  0  0  0
   21.3773   19.7423   20.0829 C   0  0  0  0  0  0  0  0  0  0  0  0
   22.1366   20.5291   20.1800 H   0  0  0  0  0  0  0  0  0  0  0  0
   20.7062   20.0228   19.2606 H   0  0  0  0  0  0  0  0  0  0  0  0
   21.8897   18.8123   19.8040 H   0  0  0  0  0  0  0  0  0  0  0  0
   20.8902   20.2251   26.6112 C   0  0  0  0  0  0  0  0  0  0  0  0
   21.3607   19.9764   27.5652 H   0  0  0  0  0  0  0  0  0  0  0  0
   21.6124   20.7270   25.9636 H   0  0  0  0  0  0  0  0  0  0  0  0
   20.0309   20.8771   26.7827 H   0  0  0  0  0  0  0  0  0  0  0  0
  1  2  1  0  0  0  0
  1  3  1  0  0  0  0
  1  4  1  0  0  0  0
  4  5  1  0  0  0  0
  4  6  1  0  0  0  0
  4  7  1  0  0  0  0
  7  8  1  0  0  0  0
  7  9  1  0  0  0  0
  7 10  1  0  0  0  0
 10 11  1  0  0  0  0
 10 12  1  0  0  0  0
 10 13  1  0  0  0  0
 13 14  1  0  0  0  0
 13 15  1  0  0  0  0
 13 16  1  0  0  0  0
 16 17  1  0  0  0  0
 16 18  1  0  0  0  0
 16 19  1  0  0  0  0
 19 20  1  0  0  0  0
 19 21  1  0  0  0  0
 19 22  1  0  0  0  0
  1 23  1  0  0  0  0
 23 24  1  0  0  0  0
 23 25  1  0  0  0  0
 23 26  1  0  0  0  0
M  END
> <VM2 Rank>
108

> <Conf_Id>
246

> <Probability>
0.05

> <Sum Probability>
98.96

> <Delta G>
2.977

> <G>
78.443

> <E>
45.956

> <-TS>
32.486

> <U+W>
24.495

> <U>
73.891

> <W>
-49.397

> <W(PB)>
-51.698

> <W(SA)>
2.301

> <Valence>
4.111

> <Coulomb>
69.672

> <VdW>
0.108

> <VdW6>
-6.998

> <VdW12>
7.106

> <Bond>
0.196

> <Angle>
1.121

> <Pdih>
2.794

> <Idih>
0.000

> <Tether>
0.000

$$$$
VeraChem MOL file


 26 25  0  0  0  0  0  0  0  0999 V2000     
   19.6976   18.1758   25.2772 N   0  3  0  0  0  0  0  0  0  0  0  0
   19.8378   17.7644   24.3439 H   0  0  0  0  0  0  0  0  0  0  0  0
   19.0107   17.5624   25.7438 H   0  0  0  0  0  0  0  0  0  0  0  0
   19.1229   19.5784   25.1531 C   0  0  0  0  0  0  0  0  0  0  0  0
   19.0638   19.9865   26.1653 H   0  0  0  0  0  0  0  0  0  0  0  0
   18.1034   19.4904   24.7693 H   0  0  0  0  0  0  0  0  0  0  0  0
   19.9176   20.5574   24.2578 C   0  0  0  0  0  0  0  0  0  0  0  0
   19.6065   21.5758   24.5260 H   0  0  0  0  0  0  0  0  0  0  0  0
   20.9894   20.5054   24.4867 H   0  0  0  0  0  0  0  0  0  0  0  0
   19.6841   20.3780   22.7357 C   0  0  0  0  0  0  0  0  0  0  0  0
   20.1903   21.2028   22.2152 H   0  0  0  0  0  0  0  0  0  0  0  0
   18.6137   20.4877   22.5128 H   0  0  0  0  0  0  0  0  0  0  0  0
   20.1974   19.0357   22.1620 C   0  0  0  0  0  0  0  0  0  0  0  0
   21.2305   18.8617   22.4939 H   0  0  0  0  0  0  0  0  0  0  0  0
   19.5861   18.2093   22.5440 H   0  0  0  0  0  0  0  0  0  0  0  0
   20.1443   19.0142   20.6181 C   0  0  0  0  0  0  0  0  0  0  0  0
   20.7590   19.8305   20.2132 H   0  0  0  0  0  0  0  0  0  0  0  0
   19.1144   19.1955   20.2796 H   0  0  0  0  0  0  0  0  0  0  0  0
   20.6419   17.6690   20.0473 C   0  0  0  0  0  0  0  0  0  0  0  0
   21.6815   17.4751   20.3423 H   0  0  0  0  0  0  0  0  0  0  0  0
   20.5988   17.6738   18.9505 H   0  0  0  0  0  0  0  0  0  0  0  0
   20.0238   16.8350   20.4045 H   0  0  0  0  0  0  0  0  0  0  0  0
   21.0022   18.1815   26.0657 C   0  0  0  0  0  0  0  0  0  0  0  0
   20.8214   18.6082   27.0547 H   0  0  0  0  0  0  0  0  0  0  0  0
   21.3623   17.1554   26.1675 H   0  0  0  0  0  0  0  0  0  0  0  0
   21.7448   18.7795   25.5340 H   0  0  0  0  0  0  0  0  0  0  0  0
  1  2  1  0  0  0  0
  1  3  1  0  0  0  0
  1  4  1  0  0  0  0
  4  5  1  0  0  0  0
  4  6  1  0  0  0  0
  4  7  1  0  0  0  0
  7  8  1  0  0  0  0
  7  9  1  0  0  0  0
  7 10  1  0  0  0  0
 10 11  1  0  0  0  0
 10 12  1  0  0  0  0
 10 13  1  0  0  0  0
 13 14  1  0  0  0  0
 13 15  1  0  0  0  0
 13 16  1  0  0  0  0
 16 17  1  0  0  0  0
 16 18  1  0  0  0  0
 16 19  1  0  0  0  0
 19 20  1  0  0  0  0
 19 21  1  0  0  0  0
 19 22  1  0  0  0  0
  1 23  1  0  0  0  0
 23 24  1  0  0  0  0
 23 25  1  0  0  0  0
 23 26  1  0  0  0  0
M  END
> <VM2 Rank>
109

> <Conf_Id>
755

> <Probability>
0.04

> <Sum Probability>
99.00

> <Delta G>
3.059

> <G>
78.525

> <E>
46.150

> <-TS>
32.375

> <U+W>
24.688

> <U>
74.427

> <W>
-49.738

> <W(PB)>
-51.983

> <W(SA)>
2.244

> <Valence>
3.638

> <Coulomb>
70.620

> <VdW>
0.169

> <VdW6>
-7.761

> <VdW12>
7.931

> <Bond>
0.224

> <Angle>
1.176

> <Pdih>
2.238

> <Idih>
0.000

> <Tether>
0.000

$$$$
VeraChem MOL file


 26 25  0  0  0  0  0  0  0  0999 V2000     
   20.0531   19.6992   26.0023 N   0  3  0  0  0  0  0  0  0  0  0  0
   20.3286   20.6213   26.3760 H   0  0  0  0  0  0  0  0  0  0  0  0
   20.4391   19.0148   26.6709 H   0  0  0  0  0  0  0  0  0  0  0  0
   20.6728   19.5003   24.6296 C   0  0  0  0  0  0  0  0  0  0  0  0
   21.7309   19.7617   24.7105 H   0  0  0  0  0  0  0  0  0  0  0  0
   20.2028   20.2110   23.9482 H   0  0  0  0  0  0  0  0  0  0  0  0
   20.5554   18.0622   24.0783 C   0  0  0  0  0  0  0  0  0  0  0  0
   21.0289   17.3826   24.7991 H   0  0  0  0  0  0  0  0  0  0  0  0
   19.5036   17.7564   24.0097 H   0  0  0  0  0  0  0  0  0  0  0  0
   21.2464   17.8836   22.7028 C   0  0  0  0  0  0  0  0  0  0  0  0
   21.5649   16.8357   22.6133 H   0  0  0  0  0  0  0  0  0  0  0  0
   22.1695   18.4786   22.6651 H   0  0  0  0  0  0  0  0  0  0  0  0
   20.3530   18.2073   21.4769 C   0  0  0  0  0  0  0  0  0  0  0  0
   20.9280   17.9867   20.5669 H   0  0  0  0  0  0  0  0  0  0  0  0
   19.4902   17.5270   21.4637 H   0  0  0  0  0  0  0  0  0  0  0  0
   19.8531   19.6691   21.4120 C   0  0  0  0  0  0  0  0  0  0  0  0
   20.6990   20.3594   21.5369 H   0  0  0  0  0  0  0  0  0  0  0  0
   19.1514   19.8612   22.2341 H   0  0  0  0  0  0  0  0  0  0  0  0
   19.1410   19.9688   20.0756 C   0  0  0  0  0  0  0  0  0  0  0  0
   19.8203   19.8270   19.2249 H   0  0  0  0  0  0  0  0  0  0  0  0
   18.7837   21.0065   20.0509 H   0  0  0  0  0  0  0  0  0  0  0  0
   18.2739   19.3106   19.9341 H   0  0  0  0  0  0  0  0  0  0  0  0
   18.5332   19.5995   25.9395 C   0  0  0  0  0  0  0  0  0  0  0  0
   18.1531   20.3473   25.2402 H   0  0  0  0  0  0  0  0  0  0  0  0
   18.2494   18.6000   25.6041 H   0  0  0  0  0  0  0  0  0  0  0  0
   18.1220   19.7829   26.9347 H   0  0  0  0  0  0  0  0  0  0  0  0
  1  2  1  0  0  0  0
  1  3  1  0  0  0  0
  1  4  1  0  0  0  0
  4  5  1  0  0  0  0
  4  6  1  0  0  0  0
  4  7  1  0  0  0  0
  7  8  1  0  0  0  0
  7  9  1  0  0  0  0
  7 10  1  0  0  0  0
 10 11  1  0  0  0  0
 10 12  1  0  0  0  0
 10 13  1  0  0  0  0
 13 14  1  0  0  0  0
 13 15  1  0  0  0  0
 13 16  1  0  0  0  0
 16 17  1  0  0  0  0
 16 18  1  0  0  0  0
 16 19  1  0  0  0  0
 19 20  1  0  0  0  0
 19 21  1  0  0  0  0
 19 22  1  0  0  0  0
  1 23  1  0  0  0  0
 23 24  1  0  0  0  0
 23 25  1  0  0  0  0
 23 26  1  0  0  0  0
M  END
> <VM2 Rank>
110

> <Conf_Id>
1051

> <Probability>
0.04

> <Sum Probability>
99.04

> <Delta G>
3.087

> <G>
78.553

> <E>
45.905

> <-TS>
32.648

> <U+W>
24.443

> <U>
74.229

> <W>
-49.785

> <W(PB)>
-52.042

> <W(SA)>
2.257

> <Valence>
4.376

> <Coulomb>
69.549

> <VdW>
0.304

> <VdW6>
-7.808

> <VdW12>
8.111

> <Bond>
0.233

> <Angle>
1.219

> <Pdih>
2.924

> <Idih>
0.000

> <Tether>
0.000

$$$$
VeraChem MOL file


 26 25  0  0  0  0  0  0  0  0999 V2000     
   19.5024   18.5157   25.2775 N   0  3  0  0  0  0  0  0  0  0  0  0
   19.9327   17.6153   25.5401 H   0  0  0  0  0  0  0  0  0  0  0  0
   19.0802   18.3599   24.3511 H   0  0  0  0  0  0  0  0  0  0  0  0
   20.5649   19.5950   25.1934 C   0  0  0  0  0  0  0  0  0  0  0  0
   21.0099   19.6793   26.1881 H   0  0  0  0  0  0  0  0  0  0  0  0
   20.0770   20.5443   24.9584 H   0  0  0  0  0  0  0  0  0  0  0  0
   21.6803   19.3116   24.1652 C   0  0  0  0  0  0  0  0  0  0  0  0
   22.5652   19.8891   24.4637 H   0  0  0  0  0  0  0  0  0  0  0  0
   21.9790   18.2561   24.2153 H   0  0  0  0  0  0  0  0  0  0  0  0
   21.3255   19.7044   22.7081 C   0  0  0  0  0  0  0  0  0  0  0  0
   22.2176   19.5492   22.0855 H   0  0  0  0  0  0  0  0  0  0  0  0
   21.1053   20.7801   22.6634 H   0  0  0  0  0  0  0  0  0  0  0  0
   20.1442   18.9116   22.0994 C   0  0  0  0  0  0  0  0  0  0  0  0
   20.3089   17.8344   22.2410 H   0  0  0  0  0  0  0  0  0  0  0  0
   19.2136   19.1738   22.6180 H   0  0  0  0  0  0  0  0  0  0  0  0
   19.9701   19.2090   20.5934 C   0  0  0  0  0  0  0  0  0  0  0  0
   20.8904   18.9456   20.0532 H   0  0  0  0  0  0  0  0  0  0  0  0
   19.8123   20.2863   20.4435 H   0  0  0  0  0  0  0  0  0  0  0  0
   18.7827   18.4287   19.9899 C   0  0  0  0  0  0  0  0  0  0  0  0
   17.8404   18.6975   20.4849 H   0  0  0  0  0  0  0  0  0  0  0  0
   18.9274   17.3455   20.0950 H   0  0  0  0  0  0  0  0  0  0  0  0
   18.6762   18.6516   18.9203 H   0  0  0  0  0  0  0  0  0  0  0  0
   18.4380   18.9141   26.2901 C   0  0  0  0  0  0  0  0  0  0  0  0
   18.9042   19.0417   27.2695 H   0  0  0  0  0  0  0  0  0  0  0  0
   17.9758   19.8522   25.9752 H   0  0  0  0  0  0  0  0  0  0  0  0
   17.6806   18.1286   26.3418 H   0  0  0  0  0  0  0  0  0  0  0  0
  1  2  1  0  0  0  0
  1  3  1  0  0  0  0
  1  4  1  0  0  0  0
  4  5  1  0  0  0  0
  4  6  1  0  0  0  0
  4  7  1  0  0  0  0
  7  8  1  0  0  0  0
  7  9  1  0  0  0  0
  7 10  1  0  0  0  0
 10 11  1  0  0  0  0
 10 12  1  0  0  0  0
 10 13  1  0  0  0  0
 13 14  1  0  0  0  0
 13 15  1  0  0  0  0
 13 16  1  0  0  0  0
 16 17  1  0  0  0  0
 16 18  1  0  0  0  0
 16 19  1  0  0  0  0
 19 20  1  0  0  0  0
 19 21  1  0  0  0  0
 19 22  1  0  0  0  0
  1 23  1  0  0  0  0
 23 24  1  0  0  0  0
 23 25  1  0  0  0  0
 23 26  1  0  0  0  0
M  END
> <VM2 Rank>
111

> <Conf_Id>
929

> <Probability>
0.04

> <Sum Probability>
99.08

> <Delta G>
3.116

> <G>
78.582

> <E>
46.237

> <-TS>
32.346

> <U+W>
24.775

> <U>
73.983

> <W>
-49.207

> <W(PB)>
-51.488

> <W(SA)>
2.280

> <Valence>
3.347

> <Coulomb>
70.654

> <VdW>
-0.018

> <VdW6>
-6.980

> <VdW12>
6.962

> <Bond>
0.176

> <Angle>
0.935

> <Pdih>
2.235

> <Idih>
0.000

> <Tether>
0.000

$$$$
VeraChem MOL file


 26 25  0  0  0  0  0  0  0  0999 V2000     
   19.6186   19.8464   25.9144 N   0  3  0  0  0  0  0  0  0  0  0  0
   19.0425   20.6930   26.0457 H   0  0  0  0  0  0  0  0  0  0  0  0
   20.4497   19.9954   26.5073 H   0  0  0  0  0  0  0  0  0  0  0  0
   20.0279   19.7296   24.4559 C   0  0  0  0  0  0  0  0  0  0  0  0
   20.4302   20.6991   24.1515 H   0  0  0  0  0  0  0  0  0  0  0  0
   19.1249   19.5340   23.8734 H   0  0  0  0  0  0  0  0  0  0  0  0
   21.0794   18.6377   24.1730 C   0  0  0  0  0  0  0  0  0  0  0  0
   21.9236   18.7738   24.8618 H   0  0  0  0  0  0  0  0  0  0  0  0
   20.6559   17.6493   24.3932 H   0  0  0  0  0  0  0  0  0  0  0  0
   21.6208   18.6524   22.7210 C   0  0  0  0  0  0  0  0  0  0  0  0
   22.4157   17.8963   22.6579 H   0  0  0  0  0  0  0  0  0  0  0  0
   22.1084   19.6136   22.5073 H   0  0  0  0  0  0  0  0  0  0  0  0
   20.5646   18.3306   21.6313 C   0  0  0  0  0  0  0  0  0  0  0  0
   21.0776   17.8442   20.7899 H   0  0  0  0  0  0  0  0  0  0  0  0
   19.8427   17.5946   22.0114 H   0  0  0  0  0  0  0  0  0  0  0  0
   19.8258   19.5766   21.0848 C   0  0  0  0  0  0  0  0  0  0  0  0
   20.5572   20.2953   20.6894 H   0  0  0  0  0  0  0  0  0  0  0  0
   19.2829   20.0915   21.8857 H   0  0  0  0  0  0  0  0  0  0  0  0
   18.8289   19.2009   19.9677 C   0  0  0  0  0  0  0  0  0  0  0  0
   19.3427   18.7230   19.1233 H   0  0  0  0  0  0  0  0  0  0  0  0
   18.3173   20.0947   19.5877 H   0  0  0  0  0  0  0  0  0  0  0  0
   18.0634   18.5071   20.3389 H   0  0  0  0  0  0  0  0  0  0  0  0
   18.8420   18.6158   26.3690 C   0  0  0  0  0  0  0  0  0  0  0  0
   17.9593   18.4951   25.7373 H   0  0  0  0  0  0  0  0  0  0  0  0
   19.4807   17.7342   26.2861 H   0  0  0  0  0  0  0  0  0  0  0  0
   18.5357   18.7507   27.4087 H   0  0  0  0  0  0  0  0  0  0  0  0
  1  2  1  0  0  0  0
  1  3  1  0  0  0  0
  1  4  1  0  0  0  0
  4  5  1  0  0  0  0
  4  6  1  0  0  0  0
  4  7  1  0  0  0  0
  7  8  1  0  0  0  0
  7  9  1  0  0  0  0
  7 10  1  0  0  0  0
 10 11  1  0  0  0  0
 10 12  1  0  0  0  0
 10 13  1  0  0  0  0
 13 14  1  0  0  0  0
 13 15  1  0  0  0  0
 13 16  1  0  0  0  0
 16 17  1  0  0  0  0
 16 18  1  0  0  0  0
 16 19  1  0  0  0  0
 19 20  1  0  0  0  0
 19 21  1  0  0  0  0
 19 22  1  0  0  0  0
  1 23  1  0  0  0  0
 23 24  1  0  0  0  0
 23 25  1  0  0  0  0
 23 26  1  0  0  0  0
M  END
> <VM2 Rank>
112

> <Conf_Id>
1314

> <Probability>
0.04

> <Sum Probability>
99.12

> <Delta G>
3.122

> <G>
78.588

> <E>
46.171

> <-TS>
32.416

> <U+W>
24.710

> <U>
74.305

> <W>
-49.596

> <W(PB)>
-51.865

> <W(SA)>
2.269

> <Valence>
4.513

> <Coulomb>
69.361

> <VdW>
0.431

> <VdW6>
-7.509

> <VdW12>
7.941

> <Bond>
0.240

> <Angle>
1.206

> <Pdih>
3.067

> <Idih>
0.000

> <Tether>
0.000

$$$$
VeraChem MOL file


 26 25  0  0  0  0  0  0  0  0999 V2000     
   20.1326   19.8991   25.9327 N   0  3  0  0  0  0  0  0  0  0  0  0
   19.2492   19.8718   26.4650 H   0  0  0  0  0  0  0  0  0  0  0  0
   20.5140   20.8442   26.0979 H   0  0  0  0  0  0  0  0  0  0  0  0
   19.8586   19.7122   24.4499 C   0  0  0  0  0  0  0  0  0  0  0  0
   20.8209   19.7085   23.9335 H   0  0  0  0  0  0  0  0  0  0  0  0
   19.2899   20.5820   24.1114 H   0  0  0  0  0  0  0  0  0  0  0  0
   19.0733   18.4316   24.1019 C   0  0  0  0  0  0  0  0  0  0  0  0
   19.6724   17.5482   24.3583 H   0  0  0  0  0  0  0  0  0  0  0  0
   18.1730   18.3882   24.7290 H   0  0  0  0  0  0  0  0  0  0  0  0
   18.6432   18.3465   22.6156 C   0  0  0  0  0  0  0  0  0  0  0  0
   17.9867   19.1901   22.3613 H   0  0  0  0  0  0  0  0  0  0  0  0
   18.0248   17.4451   22.5024 H   0  0  0  0  0  0  0  0  0  0  0  0
   19.8164   18.2537   21.6048 C   0  0  0  0  0  0  0  0  0  0  0  0
   20.6443   17.6769   22.0398 H   0  0  0  0  0  0  0  0  0  0  0  0
   19.4731   17.6794   20.7331 H   0  0  0  0  0  0  0  0  0  0  0  0
   20.3232   19.6278   21.1024 C   0  0  0  0  0  0  0  0  0  0  0  0
   20.6928   20.2363   21.9357 H   0  0  0  0  0  0  0  0  0  0  0  0
   19.4906   20.1858   20.6516 H   0  0  0  0  0  0  0  0  0  0  0  0
   21.4513   19.4703   20.0606 C   0  0  0  0  0  0  0  0  0  0  0  0
   22.3139   18.9438   20.4895 H   0  0  0  0  0  0  0  0  0  0  0  0
   21.7961   20.4521   19.7110 H   0  0  0  0  0  0  0  0  0  0  0  0
   21.1057   18.9042   19.1858 H   0  0  0  0  0  0  0  0  0  0  0  0
   21.1094   18.8488   26.4491 C   0  0  0  0  0  0  0  0  0  0  0  0
   20.6706   17.8564   26.3281 H   0  0  0  0  0  0  0  0  0  0  0  0
   22.0402   18.9146   25.8816 H   0  0  0  0  0  0  0  0  0  0  0  0
   21.3084   19.0356   27.5068 H   0  0  0  0  0  0  0  0  0  0  0  0
  1  2  1  0  0  0  0
  1  3  1  0  0  0  0
  1  4  1  0  0  0  0
  4  5  1  0  0  0  0
  4  6  1  0  0  0  0
  4  7  1  0  0  0  0
  7  8  1  0  0  0  0
  7  9  1  0  0  0  0
  7 10  1  0  0  0  0
 10 11  1  0  0  0  0
 10 12  1  0  0  0  0
 10 13  1  0  0  0  0
 13 14  1  0  0  0  0
 13 15  1  0  0  0  0
 13 16  1  0  0  0  0
 16 17  1  0  0  0  0
 16 18  1  0  0  0  0
 16 19  1  0  0  0  0
 19 20  1  0  0  0  0
 19 21  1  0  0  0  0
 19 22  1  0  0  0  0
  1 23  1  0  0  0  0
 23 24  1  0  0  0  0
 23 25  1  0  0  0  0
 23 26  1  0  0  0  0
M  END
> <VM2 Rank>
113

> <Conf_Id>
1054

> <Probability>
0.04

> <Sum Probability>
99.16

> <Delta G>
3.134

> <G>
78.600

> <E>
46.184

> <-TS>
32.416

> <U+W>
24.722

> <U>
74.305

> <W>
-49.583

> <W(PB)>
-51.861

> <W(SA)>
2.278

> <Valence>
4.513

> <Coulomb>
69.361

> <VdW>
0.431

> <VdW6>
-7.509

> <VdW12>
7.940

> <Bond>
0.240

> <Angle>
1.206

> <Pdih>
3.067

> <Idih>
0.000

> <Tether>
0.000

$$$$
VeraChem MOL file


 26 25  0  0  0  0  0  0  0  0999 V2000     
   19.7316   19.6659   25.9909 N   0  3  0  0  0  0  0  0  0  0  0  0
   19.4476   18.9123   26.6358 H   0  0  0  0  0  0  0  0  0  0  0  0
   19.2484   20.5097   26.3379 H   0  0  0  0  0  0  0  0  0  0  0  0
   19.2631   19.3548   24.5797 C   0  0  0  0  0  0  0  0  0  0  0  0
   19.6247   20.1514   23.9278 H   0  0  0  0  0  0  0  0  0  0  0  0
   18.1708   19.3943   24.5846 H   0  0  0  0  0  0  0  0  0  0  0  0
   19.7096   17.9750   24.0483 C   0  0  0  0  0  0  0  0  0  0  0  0
   20.8038   17.8906   24.0556 H   0  0  0  0  0  0  0  0  0  0  0  0
   19.3354   17.2078   24.7391 H   0  0  0  0  0  0  0  0  0  0  0  0
   19.1674   17.6691   22.6292 C   0  0  0  0  0  0  0  0  0  0  0  0
   18.1473   18.0637   22.5227 H   0  0  0  0  0  0  0  0  0  0  0  0
   19.0763   16.5790   22.5252 H   0  0  0  0  0  0  0  0  0  0  0  0
   20.0596   18.1770   21.4665 C   0  0  0  0  0  0  0  0  0  0  0  0
   21.0417   17.6870   21.5186 H   0  0  0  0  0  0  0  0  0  0  0  0
   19.6067   17.8504   20.5201 H   0  0  0  0  0  0  0  0  0  0  0  0
   20.2542   19.7105   21.4262 C   0  0  0  0  0  0  0  0  0  0  0  0
   20.8427   20.0357   22.2940 H   0  0  0  0  0  0  0  0  0  0  0  0
   19.2787   20.2130   21.4866 H   0  0  0  0  0  0  0  0  0  0  0  0
   20.9820   20.1587   20.1408 C   0  0  0  0  0  0  0  0  0  0  0  0
   21.9729   19.6921   20.0652 H   0  0  0  0  0  0  0  0  0  0  0  0
   21.1212   21.2476   20.1338 H   0  0  0  0  0  0  0  0  0  0  0  0
   20.4072   19.8876   19.2457 H   0  0  0  0  0  0  0  0  0  0  0  0
   21.2405   19.8789   26.0353 C   0  0  0  0  0  0  0  0  0  0  0  0
   21.7450   18.9608   25.7277 H   0  0  0  0  0  0  0  0  0  0  0  0
   21.5079   20.6936   25.3589 H   0  0  0  0  0  0  0  0  0  0  0  0
   21.5350   20.1351   27.0554 H   0  0  0  0  0  0  0  0  0  0  0  0
  1  2  1  0  0  0  0
  1  3  1  0  0  0  0
  1  4  1  0  0  0  0
  4  5  1  0  0  0  0
  4  6  1  0  0  0  0
  4  7  1  0  0  0  0
  7  8  1  0  0  0  0
  7  9  1  0  0  0  0
  7 10  1  0  0  0  0
 10 11  1  0  0  0  0
 10 12  1  0  0  0  0
 10 13  1  0  0  0  0
 13 14  1  0  0  0  0
 13 15  1  0  0  0  0
 13 16  1  0  0  0  0
 16 17  1  0  0  0  0
 16 18  1  0  0  0  0
 16 19  1  0  0  0  0
 19 20  1  0  0  0  0
 19 21  1  0  0  0  0
 19 22  1  0  0  0  0
  1 23  1  0  0  0  0
 23 24  1  0  0  0  0
 23 25  1  0  0  0  0
 23 26  1  0  0  0  0
M  END
> <VM2 Rank>
114

> <Conf_Id>
223

> <Probability>
0.04

> <Sum Probability>
99.19

> <Delta G>
3.138

> <G>
78.604

> <E>
45.956

> <-TS>
32.648

> <U+W>
24.494

> <U>
74.229

> <W>
-49.735

> <W(PB)>
-51.986

> <W(SA)>
2.251

> <Valence>
4.376

> <Coulomb>
69.549

> <VdW>
0.303

> <VdW6>
-7.807

> <VdW12>
8.111

> <Bond>
0.233

> <Angle>
1.219

> <Pdih>
2.925

> <Idih>
0.000

> <Tether>
0.000

$$$$
VeraChem MOL file


 26 25  0  0  0  0  0  0  0  0999 V2000     
   20.5603   18.6237   25.3150 N   0  3  0  0  0  0  0  0  0  0  0  0
   21.0692   18.5630   24.4215 H   0  0  0  0  0  0  0  0  0  0  0  0
   20.3033   17.6531   25.5531 H   0  0  0  0  0  0  0  0  0  0  0  0
   19.3105   19.4670   25.1490 C   0  0  0  0  0  0  0  0  0  0  0  0
   19.6120   20.4969   24.9420 H   0  0  0  0  0  0  0  0  0  0  0  0
   18.7891   19.4526   26.1095 H   0  0  0  0  0  0  0  0  0  0  0  0
   18.3500   18.9717   24.0473 C   0  0  0  0  0  0  0  0  0  0  0  0
   18.2676   17.8773   24.0839 H   0  0  0  0  0  0  0  0  0  0  0  0
   17.3480   19.3567   24.2788 H   0  0  0  0  0  0  0  0  0  0  0  0
   18.7194   19.4385   22.6157 C   0  0  0  0  0  0  0  0  0  0  0  0
   18.7206   20.5368   22.5790 H   0  0  0  0  0  0  0  0  0  0  0  0
   17.9228   19.1109   21.9334 H   0  0  0  0  0  0  0  0  0  0  0  0
   20.0760   18.9046   22.0970 C   0  0  0  0  0  0  0  0  0  0  0  0
   20.8959   19.3455   22.6776 H   0  0  0  0  0  0  0  0  0  0  0  0
   20.1225   17.8154   22.2343 H   0  0  0  0  0  0  0  0  0  0  0  0
   20.2916   19.2418   20.6047 C   0  0  0  0  0  0  0  0  0  0  0  0
   20.2390   20.3299   20.4587 H   0  0  0  0  0  0  0  0  0  0  0  0
   19.4835   18.8022   20.0034 H   0  0  0  0  0  0  0  0  0  0  0  0
   21.6513   18.7214   20.0915 C   0  0  0  0  0  0  0  0  0  0  0  0
   22.4829   19.1710   20.6494 H   0  0  0  0  0  0  0  0  0  0  0  0
   21.7853   18.9689   19.0304 H   0  0  0  0  0  0  0  0  0  0  0  0
   21.7209   17.6306   20.1938 H   0  0  0  0  0  0  0  0  0  0  0  0
   21.4489   19.2213   26.3969 C   0  0  0  0  0  0  0  0  0  0  0  0
   20.8990   19.2451   27.3402 H   0  0  0  0  0  0  0  0  0  0  0  0
   22.3436   18.6045   26.5070 H   0  0  0  0  0  0  0  0  0  0  0  0
   21.7331   20.2357   26.1086 H   0  0  0  0  0  0  0  0  0  0  0  0
  1  2  1  0  0  0  0
  1  3  1  0  0  0  0
  1  4  1  0  0  0  0
  4  5  1  0  0  0  0
  4  6  1  0  0  0  0
  4  7  1  0  0  0  0
  7  8  1  0  0  0  0
  7  9  1  0  0  0  0
  7 10  1  0  0  0  0
 10 11  1  0  0  0  0
 10 12  1  0  0  0  0
 10 13  1  0  0  0  0
 13 14  1  0  0  0  0
 13 15  1  0  0  0  0
 13 16  1  0  0  0  0
 16 17  1  0  0  0  0
 16 18  1  0  0  0  0
 16 19  1  0  0  0  0
 19 20  1  0  0  0  0
 19 21  1  0  0  0  0
 19 22  1  0  0  0  0
  1 23  1  0  0  0  0
 23 24  1  0  0  0  0
 23 25  1  0  0  0  0
 23 26  1  0  0  0  0
M  END
> <VM2 Rank>
115

> <Conf_Id>
534

> <Probability>
0.04

> <Sum Probability>
99.23

> <Delta G>
3.147

> <G>
78.613

> <E>
46.267

> <-TS>
32.346

> <U+W>
24.805

> <U>
73.983

> <W>
-49.177

> <W(PB)>
-51.451

> <W(SA)>
2.274

> <Valence>
3.347

> <Coulomb>
70.654

> <VdW>
-0.018

> <VdW6>
-6.980

> <VdW12>
6.962

> <Bond>
0.176

> <Angle>
0.935

> <Pdih>
2.235

> <Idih>
0.000

> <Tether>
0.000

$$$$
VeraChem MOL file


 26 25  0  0  0  0  0  0  0  0999 V2000     
   20.2411   18.9168   25.9227 N   0  3  0  0  0  0  0  0  0  0  0  0
   20.8256   18.4818   26.6538 H   0  0  0  0  0  0  0  0  0  0  0  0
   19.2976   18.9699   26.3356 H   0  0  0  0  0  0  0  0  0  0  0  0
   20.2298   18.0200   24.6939 C   0  0  0  0  0  0  0  0  0  0  0  0
   20.3346   16.9954   25.0598 H   0  0  0  0  0  0  0  0  0  0  0  0
   21.1113   18.2467   24.0896 H   0  0  0  0  0  0  0  0  0  0  0  0
   18.9469   18.0839   23.8329 C   0  0  0  0  0  0  0  0  0  0  0  0
   18.9656   17.2465   23.1240 H   0  0  0  0  0  0  0  0  0  0  0  0
   18.0753   17.9040   24.4758 H   0  0  0  0  0  0  0  0  0  0  0  0
   18.7380   19.4057   23.0492 C   0  0  0  0  0  0  0  0  0  0  0  0
   18.5344   20.2195   23.7567 H   0  0  0  0  0  0  0  0  0  0  0  0
   17.8273   19.3135   22.4415 H   0  0  0  0  0  0  0  0  0  0  0  0
   19.9171   19.8121   22.1271 C   0  0  0  0  0  0  0  0  0  0  0  0
   19.6733   20.7751   21.6576 H   0  0  0  0  0  0  0  0  0  0  0  0
   20.8215   19.9871   22.7239 H   0  0  0  0  0  0  0  0  0  0  0  0
   20.2207   18.7759   21.0193 C   0  0  0  0  0  0  0  0  0  0  0  0
   19.3077   18.5700   20.4433 H   0  0  0  0  0  0  0  0  0  0  0  0
   20.5362   17.8241   21.4672 H   0  0  0  0  0  0  0  0  0  0  0  0
   21.3278   19.2710   20.0644 C   0  0  0  0  0  0  0  0  0  0  0  0
   21.5322   18.5234   19.2871 H   0  0  0  0  0  0  0  0  0  0  0  0
   22.2636   19.4565   20.6076 H   0  0  0  0  0  0  0  0  0  0  0  0
   21.0317   20.2029   19.5653 H   0  0  0  0  0  0  0  0  0  0  0  0
   20.7866   20.3047   25.6074 C   0  0  0  0  0  0  0  0  0  0  0  0
   20.8125   20.8942   26.5266 H   0  0  0  0  0  0  0  0  0  0  0  0
   21.7970   20.2086   25.2043 H   0  0  0  0  0  0  0  0  0  0  0  0
   20.1429   20.7956   24.8769 H   0  0  0  0  0  0  0  0  0  0  0  0
  1  2  1  0  0  0  0
  1  3  1  0  0  0  0
  1  4  1  0  0  0  0
  4  5  1  0  0  0  0
  4  6  1  0  0  0  0
  4  7  1  0  0  0  0
  7  8  1  0  0  0  0
  7  9  1  0  0  0  0
  7 10  1  0  0  0  0
 10 11  1  0  0  0  0
 10 12  1  0  0  0  0
 10 13  1  0  0  0  0
 13 14  1  0  0  0  0
 13 15  1  0  0  0  0
 13 16  1  0  0  0  0
 16 17  1  0  0  0  0
 16 18  1  0  0  0  0
 16 19  1  0  0  0  0
 19 20  1  0  0  0  0
 19 21  1  0  0  0  0
 19 22  1  0  0  0  0
  1 23  1  0  0  0  0
 23 24  1  0  0  0  0
 23 25  1  0  0  0  0
 23 26  1  0  0  0  0
M  END
> <VM2 Rank>
116

> <Conf_Id>
817

> <Probability>
0.04

> <Sum Probability>
99.26

> <Delta G>
3.157

> <G>
78.623

> <E>
45.528

> <-TS>
33.095

> <U+W>
24.066

> <U>
74.107

> <W>
-50.041

> <W(PB)>
-52.240

> <W(SA)>
2.200

> <Valence>
4.499

> <Coulomb>
69.634

> <VdW>
-0.027

> <VdW6>
-8.973

> <VdW12>
8.947

> <Bond>
0.259

> <Angle>
1.561

> <Pdih>
2.679

> <Idih>
0.000

> <Tether>
0.000

$$$$
VeraChem MOL file


 26 25  0  0  0  0  0  0  0  0999 V2000     
   19.6820   19.1882   25.9374 N   0  3  0  0  0  0  0  0  0  0  0  0
   19.9411   19.2640   26.9336 H   0  0  0  0  0  0  0  0  0  0  0  0
   18.7762   18.6953   25.9358 H   0  0  0  0  0  0  0  0  0  0  0  0
   20.7320   18.3645   25.2081 C   0  0  0  0  0  0  0  0  0  0  0  0
   21.1601   17.6820   25.9467 H   0  0  0  0  0  0  0  0  0  0  0  0
   21.5289   19.0350   24.8782 H   0  0  0  0  0  0  0  0  0  0  0  0
   20.2087   17.5151   24.0262 C   0  0  0  0  0  0  0  0  0  0  0  0
   21.0256   16.8692   23.6780 H   0  0  0  0  0  0  0  0  0  0  0  0
   19.4264   16.8383   24.3942 H   0  0  0  0  0  0  0  0  0  0  0  0
   19.6602   18.3177   22.8203 C   0  0  0  0  0  0  0  0  0  0  0  0
   18.7822   18.8999   23.1274 H   0  0  0  0  0  0  0  0  0  0  0  0
   19.2988   17.6005   22.0720 H   0  0  0  0  0  0  0  0  0  0  0  0
   20.7191   19.2459   22.1720 C   0  0  0  0  0  0  0  0  0  0  0  0
   21.1302   19.9249   22.9299 H   0  0  0  0  0  0  0  0  0  0  0  0
   21.5636   18.6446   21.8082 H   0  0  0  0  0  0  0  0  0  0  0  0
   20.1577   20.1032   21.0118 C   0  0  0  0  0  0  0  0  0  0  0  0
   20.9380   20.8034   20.6821 H   0  0  0  0  0  0  0  0  0  0  0  0
   19.3249   20.7212   21.3755 H   0  0  0  0  0  0  0  0  0  0  0  0
   19.6935   19.2683   19.7965 C   0  0  0  0  0  0  0  0  0  0  0  0
   19.3960   19.9262   18.9698 H   0  0  0  0  0  0  0  0  0  0  0  0
   18.8289   18.6404   20.0444 H   0  0  0  0  0  0  0  0  0  0  0  0
   20.4994   18.6173   19.4334 H   0  0  0  0  0  0  0  0  0  0  0  0
   19.5547   20.5872   25.3448 C   0  0  0  0  0  0  0  0  0  0  0  0
   20.5217   21.0909   25.4076 H   0  0  0  0  0  0  0  0  0  0  0  0
   19.2427   20.5183   24.3021 H   0  0  0  0  0  0  0  0  0  0  0  0
   18.8106   21.1488   25.9139 H   0  0  0  0  0  0  0  0  0  0  0  0
  1  2  1  0  0  0  0
  1  3  1  0  0  0  0
  1  4  1  0  0  0  0
  4  5  1  0  0  0  0
  4  6  1  0  0  0  0
  4  7  1  0  0  0  0
  7  8  1  0  0  0  0
  7  9  1  0  0  0  0
  7 10  1  0  0  0  0
 10 11  1  0  0  0  0
 10 12  1  0  0  0  0
 10 13  1  0  0  0  0
 13 14  1  0  0  0  0
 13 15  1  0  0  0  0
 13 16  1  0  0  0  0
 16 17  1  0  0  0  0
 16 18  1  0  0  0  0
 16 19  1  0  0  0  0
 19 20  1  0  0  0  0
 19 21  1  0  0  0  0
 19 22  1  0  0  0  0
  1 23  1  0  0  0  0
 23 24  1  0  0  0  0
 23 25  1  0  0  0  0
 23 26  1  0  0  0  0
M  END
> <VM2 Rank>
117

> <Conf_Id>
799

> <Probability>
0.03

> <Sum Probability>
99.29

> <Delta G>
3.337

> <G>
78.803

> <E>
45.757

> <-TS>
33.046

> <U+W>
24.295

> <U>
74.192

> <W>
-49.897

> <W(PB)>
-52.091

> <W(SA)>
2.194

> <Valence>
4.602

> <Coulomb>
69.486

> <VdW>
0.104

> <VdW6>
-8.803

> <VdW12>
8.907

> <Bond>
0.257

> <Angle>
1.462

> <Pdih>
2.883

> <Idih>
0.000

> <Tether>
0.000

$$$$
VeraChem MOL file


 26 25  0  0  0  0  0  0  0  0999 V2000     
   20.2026   19.2414   25.9561 N   0  3  0  0  0  0  0  0  0  0  0  0
   21.1873   18.9427   26.0218 H   0  0  0  0  0  0  0  0  0  0  0  0
   19.8640   19.2559   26.9311 H   0  0  0  0  0  0  0  0  0  0  0  0
   19.3954   18.2273   25.1606 C   0  0  0  0  0  0  0  0  0  0  0  0
   18.5042   18.7245   24.7708 H   0  0  0  0  0  0  0  0  0  0  0  0
   19.0639   17.4667   25.8721 H   0  0  0  0  0  0  0  0  0  0  0  0
   20.1619   17.5104   24.0244 C   0  0  0  0  0  0  0  0  0  0  0  0
   21.0376   17.0039   24.4513 H   0  0  0  0  0  0  0  0  0  0  0  0
   19.5197   16.7146   23.6244 H   0  0  0  0  0  0  0  0  0  0  0  0
   20.6191   18.4164   22.8543 C   0  0  0  0  0  0  0  0  0  0  0  0
   21.1701   17.7929   22.1383 H   0  0  0  0  0  0  0  0  0  0  0  0
   21.3370   19.1624   23.2179 H   0  0  0  0  0  0  0  0  0  0  0  0
   19.4420   19.1151   22.1268 C   0  0  0  0  0  0  0  0  0  0  0  0
   18.7644   18.3576   21.7094 H   0  0  0  0  0  0  0  0  0  0  0  0
   18.8499   19.6913   22.8491 H   0  0  0  0  0  0  0  0  0  0  0  0
   19.8975   20.0765   21.0024 C   0  0  0  0  0  0  0  0  0  0  0  0
   20.5605   20.8478   21.4187 H   0  0  0  0  0  0  0  0  0  0  0  0
   19.0165   20.6064   20.6140 H   0  0  0  0  0  0  0  0  0  0  0  0
   20.6047   19.3614   19.8285 C   0  0  0  0  0  0  0  0  0  0  0  0
   21.5592   18.9200   20.1405 H   0  0  0  0  0  0  0  0  0  0  0  0
   20.8196   20.0718   19.0197 H   0  0  0  0  0  0  0  0  0  0  0  0
   19.9748   18.5633   19.4149 H   0  0  0  0  0  0  0  0  0  0  0  0
   20.0847   20.6415   25.3640 C   0  0  0  0  0  0  0  0  0  0  0  0
   19.0336   20.9380   25.3549 H   0  0  0  0  0  0  0  0  0  0  0  0
   20.6574   21.3383   25.9800 H   0  0  0  0  0  0  0  0  0  0  0  0
   20.4768   20.6450   24.3463 H   0  0  0  0  0  0  0  0  0  0  0  0
  1  2  1  0  0  0  0
  1  3  1  0  0  0  0
  1  4  1  0  0  0  0
  4  5  1  0  0  0  0
  4  6  1  0  0  0  0
  4  7  1  0  0  0  0
  7  8  1  0  0  0  0
  7  9  1  0  0  0  0
  7 10  1  0  0  0  0
 10 11  1  0  0  0  0
 10 12  1  0  0  0  0
 10 13  1  0  0  0  0
 13 14  1  0  0  0  0
 13 15  1  0  0  0  0
 13 16  1  0  0  0  0
 16 17  1  0  0  0  0
 16 18  1  0  0  0  0
 16 19  1  0  0  0  0
 19 20  1  0  0  0  0
 19 21  1  0  0  0  0
 19 22  1  0  0  0  0
  1 23  1  0  0  0  0
 23 24  1  0  0  0  0
 23 25  1  0  0  0  0
 23 26  1  0  0  0  0
M  END
> <VM2 Rank>
118

> <Conf_Id>
1083

> <Probability>
0.03

> <Sum Probability>
99.32

> <Delta G>
3.343

> <G>
78.809

> <E>
45.763

> <-TS>
33.046

> <U+W>
24.302

> <U>
74.191

> <W>
-49.890

> <W(PB)>
-52.099

> <W(SA)>
2.209

> <Valence>
4.602

> <Coulomb>
69.486

> <VdW>
0.104

> <VdW6>
-8.802

> <VdW12>
8.906

> <Bond>
0.257

> <Angle>
1.462

> <Pdih>
2.883

> <Idih>
0.000

> <Tether>
0.000

$$$$
VeraChem MOL file


 26 25  0  0  0  0  0  0  0  0999 V2000     
   19.7001   18.4407   26.0187 N   0  3  0  0  0  0  0  0  0  0  0  0
   20.5248   17.8440   26.1879 H   0  0  0  0  0  0  0  0  0  0  0  0
   18.9589   17.7997   25.6955 H   0  0  0  0  0  0  0  0  0  0  0  0
   20.0083   19.4671   24.9471 C   0  0  0  0  0  0  0  0  0  0  0  0
   20.8007   20.1183   25.3246 H   0  0  0  0  0  0  0  0  0  0  0  0
   19.1105   20.0711   24.7932 H   0  0  0  0  0  0  0  0  0  0  0  0
   20.4456   18.8402   23.6109 C   0  0  0  0  0  0  0  0  0  0  0  0
   21.3379   18.2216   23.7757 H   0  0  0  0  0  0  0  0  0  0  0  0
   19.6567   18.1695   23.2526 H   0  0  0  0  0  0  0  0  0  0  0  0
   20.7586   19.9275   22.5548 C   0  0  0  0  0  0  0  0  0  0  0  0
   21.5682   20.5595   22.9457 H   0  0  0  0  0  0  0  0  0  0  0  0
   19.8936   20.5918   22.4208 H   0  0  0  0  0  0  0  0  0  0  0  0
   21.2043   19.3506   21.1854 C   0  0  0  0  0  0  0  0  0  0  0  0
   21.9566   20.0278   20.7578 H   0  0  0  0  0  0  0  0  0  0  0  0
   21.7179   18.3894   21.3249 H   0  0  0  0  0  0  0  0  0  0  0  0
   20.0670   19.2008   20.1425 C   0  0  0  0  0  0  0  0  0  0  0  0
   20.5060   18.8548   19.1962 H   0  0  0  0  0  0  0  0  0  0  0  0
   19.6287   20.1862   19.9311 H   0  0  0  0  0  0  0  0  0  0  0  0
   18.9474   18.2205   20.5558 C   0  0  0  0  0  0  0  0  0  0  0  0
   18.3651   18.6127   21.3985 H   0  0  0  0  0  0  0  0  0  0  0  0
   19.3600   17.2434   20.8386 H   0  0  0  0  0  0  0  0  0  0  0  0
   18.2503   18.0618   19.7229 H   0  0  0  0  0  0  0  0  0  0  0  0
   19.2767   19.1426   27.3017 C   0  0  0  0  0  0  0  0  0  0  0  0
   20.0886   19.7891   27.6421 H   0  0  0  0  0  0  0  0  0  0  0  0
   18.3842   19.7410   27.1060 H   0  0  0  0  0  0  0  0  0  0  0  0
   19.0578   18.3925   28.0649 H   0  0  0  0  0  0  0  0  0  0  0  0
  1  2  1  0  0  0  0
  1  3  1  0  0  0  0
  1  4  1  0  0  0  0
  4  5  1  0  0  0  0
  4  6  1  0  0  0  0
  4  7  1  0  0  0  0
  7  8  1  0  0  0  0
  7  9  1  0  0  0  0
  7 10  1  0  0  0  0
 10 11  1  0  0  0  0
 10 12  1  0  0  0  0
 10 13  1  0  0  0  0
 13 14  1  0  0  0  0
 13 15  1  0  0  0  0
 13 16  1  0  0  0  0
 16 17  1  0  0  0  0
 16 18  1  0  0  0  0
 16 19  1  0  0  0  0
 19 20  1  0  0  0  0
 19 21  1  0  0  0  0
 19 22  1  0  0  0  0
  1 23  1  0  0  0  0
 23 24  1  0  0  0  0
 23 25  1  0  0  0  0
 23 26  1  0  0  0  0
M  END
> <VM2 Rank>
119

> <Conf_Id>
409

> <Probability>
0.03

> <Sum Probability>
99.34

> <Delta G>
3.369

> <G>
78.835

> <E>
46.332

> <-TS>
32.503

> <U+W>
24.870

> <U>
74.070

> <W>
-49.200

> <W(PB)>
-51.475

> <W(SA)>
2.275

> <Valence>
4.690

> <Coulomb>
69.115

> <VdW>
0.266

> <VdW6>
-6.809

> <VdW12>
7.075

> <Bond>
0.212

> <Angle>
1.133

> <Pdih>
3.345

> <Idih>
0.000

> <Tether>
0.000

$$$$
VeraChem MOL file


 26 25  0  0  0  0  0  0  0  0999 V2000     
   20.9361   18.7476   25.7654 N   0  3  0  0  0  0  0  0  0  0  0  0
   21.9077   19.0264   25.9755 H   0  0  0  0  0  0  0  0  0  0  0  0
   20.9835   17.7332   25.5833 H   0  0  0  0  0  0  0  0  0  0  0  0
   20.4527   19.4823   24.5262 C   0  0  0  0  0  0  0  0  0  0  0  0
   21.2271   19.3717   23.7656 H   0  0  0  0  0  0  0  0  0  0  0  0
   20.3758   20.5438   24.7743 H   0  0  0  0  0  0  0  0  0  0  0  0
   19.1033   18.9779   23.9686 C   0  0  0  0  0  0  0  0  0  0  0  0
   19.1390   17.8924   23.8075 H   0  0  0  0  0  0  0  0  0  0  0  0
   18.3279   19.1533   24.7253 H   0  0  0  0  0  0  0  0  0  0  0  0
   18.6813   19.6964   22.6620 C   0  0  0  0  0  0  0  0  0  0  0  0
   18.9689   20.7561   22.7053 H   0  0  0  0  0  0  0  0  0  0  0  0
   17.5838   19.6890   22.6072 H   0  0  0  0  0  0  0  0  0  0  0  0
   19.2182   19.0504   21.3580 C   0  0  0  0  0  0  0  0  0  0  0  0
   18.8354   18.0239   21.2740 H   0  0  0  0  0  0  0  0  0  0  0  0
   18.7983   19.6020   20.5054 H   0  0  0  0  0  0  0  0  0  0  0  0
   20.7594   19.0344   21.2338 C   0  0  0  0  0  0  0  0  0  0  0  0
   21.1886   18.3632   21.9889 H   0  0  0  0  0  0  0  0  0  0  0  0
   21.1602   20.0397   21.4248 H   0  0  0  0  0  0  0  0  0  0  0  0
   21.2132   18.5598   19.8367 C   0  0  0  0  0  0  0  0  0  0  0  0
   20.8375   19.2277   19.0506 H   0  0  0  0  0  0  0  0  0  0  0  0
   20.8487   17.5457   19.6268 H   0  0  0  0  0  0  0  0  0  0  0  0
   22.3087   18.5445   19.7695 H   0  0  0  0  0  0  0  0  0  0  0  0
   20.0439   19.0412   26.9662 C   0  0  0  0  0  0  0  0  0  0  0  0
   20.0271   20.1184   27.1458 H   0  0  0  0  0  0  0  0  0  0  0  0
   19.0328   18.6835   26.7619 H   0  0  0  0  0  0  0  0  0  0  0  0
   20.4445   18.5275   27.8429 H   0  0  0  0  0  0  0  0  0  0  0  0
  1  2  1  0  0  0  0
  1  3  1  0  0  0  0
  1  4  1  0  0  0  0
  4  5  1  0  0  0  0
  4  6  1  0  0  0  0
  4  7  1  0  0  0  0
  7  8  1  0  0  0  0
  7  9  1  0  0  0  0
  7 10  1  0  0  0  0
 10 11  1  0  0  0  0
 10 12  1  0  0  0  0
 10 13  1  0  0  0  0
 13 14  1  0  0  0  0
 13 15  1  0  0  0  0
 13 16  1  0  0  0  0
 16 17  1  0  0  0  0
 16 18  1  0  0  0  0
 16 19  1  0  0  0  0
 19 20  1  0  0  0  0
 19 21  1  0  0  0  0
 19 22  1  0  0  0  0
  1 23  1  0  0  0  0
 23 24  1  0  0  0  0
 23 25  1  0  0  0  0
 23 26  1  0  0  0  0
M  END
> <VM2 Rank>
120

> <Conf_Id>
1308

> <Probability>
0.02

> <Sum Probability>
99.37

> <Delta G>
3.383

> <G>
78.849

> <E>
46.165

> <-TS>
32.684

> <U+W>
24.703

> <U>
74.467

> <W>
-49.764

> <W(PB)>
-52.029

> <W(SA)>
2.265

> <Valence>
4.430

> <Coulomb>
69.610

> <VdW>
0.428

> <VdW6>
-7.654

> <VdW12>
8.082

> <Bond>
0.236

> <Angle>
1.210

> <Pdih>
2.983

> <Idih>
0.000

> <Tether>
0.000

$$$$
VeraChem MOL file


 26 25  0  0  0  0  0  0  0  0999 V2000     
   20.0147   18.6234   26.2325 N   0  3  0  0  0  0  0  0  0  0  0  0
   20.5860   18.3796   27.0571 H   0  0  0  0  0  0  0  0  0  0  0  0
   19.1778   18.0249   26.3072 H   0  0  0  0  0  0  0  0  0  0  0  0
   20.7912   18.2821   24.9679 C   0  0  0  0  0  0  0  0  0  0  0  0
   21.1430   17.2550   25.0954 H   0  0  0  0  0  0  0  0  0  0  0  0
   21.6700   18.9295   24.9137 H   0  0  0  0  0  0  0  0  0  0  0  0
   19.9922   18.3566   23.6477 C   0  0  0  0  0  0  0  0  0  0  0  0
   20.3790   17.5743   22.9828 H   0  0  0  0  0  0  0  0  0  0  0  0
   18.9376   18.1138   23.8328 H   0  0  0  0  0  0  0  0  0  0  0  0
   20.1205   19.7267   22.9346 C   0  0  0  0  0  0  0  0  0  0  0  0
   21.1743   19.9192   22.6937 H   0  0  0  0  0  0  0  0  0  0  0  0
   19.8211   20.5312   23.6164 H   0  0  0  0  0  0  0  0  0  0  0  0
   19.2562   19.8400   21.6518 C   0  0  0  0  0  0  0  0  0  0  0  0
   18.1961   19.7523   21.9271 H   0  0  0  0  0  0  0  0  0  0  0  0
   19.3751   20.8499   21.2356 H   0  0  0  0  0  0  0  0  0  0  0  0
   19.5716   18.8026   20.5437 C   0  0  0  0  0  0  0  0  0  0  0  0
   18.8986   18.9840   19.6941 H   0  0  0  0  0  0  0  0  0  0  0  0
   19.3417   17.7881   20.8958 H   0  0  0  0  0  0  0  0  0  0  0  0
   21.0323   18.8630   20.0421 C   0  0  0  0  0  0  0  0  0  0  0  0
   21.7403   18.5730   20.8284 H   0  0  0  0  0  0  0  0  0  0  0  0
   21.2911   19.8739   19.7014 H   0  0  0  0  0  0  0  0  0  0  0  0
   21.1776   18.1768   19.1978 H   0  0  0  0  0  0  0  0  0  0  0  0
   19.6292   20.0956   26.2966 C   0  0  0  0  0  0  0  0  0  0  0  0
   20.5275   20.7078   26.1917 H   0  0  0  0  0  0  0  0  0  0  0  0
   18.9276   20.3186   25.4907 H   0  0  0  0  0  0  0  0  0  0  0  0
   19.1546   20.2982   27.2593 H   0  0  0  0  0  0  0  0  0  0  0  0
  1  2  1  0  0  0  0
  1  3  1  0  0  0  0
  1  4  1  0  0  0  0
  4  5  1  0  0  0  0
  4  6  1  0  0  0  0
  4  7  1  0  0  0  0
  7  8  1  0  0  0  0
  7  9  1  0  0  0  0
  7 10  1  0  0  0  0
 10 11  1  0  0  0  0
 10 12  1  0  0  0  0
 10 13  1  0  0  0  0
 13 14  1  0  0  0  0
 13 15  1  0  0  0  0
 13 16  1  0  0  0  0
 16 17  1  0  0  0  0
 16 18  1  0  0  0  0
 16 19  1  0  0  0  0
 19 20  1  0  0  0  0
 19 21  1  0  0  0  0
 19 22  1  0  0  0  0
  1 23  1  0  0  0  0
 23 24  1  0  0  0  0
 23 25  1  0  0  0  0
 23 26  1  0  0  0  0
M  END
> <VM2 Rank>
121

> <Conf_Id>
463

> <Probability>
0.02

> <Sum Probability>
99.39

> <Delta G>
3.424

> <G>
78.890

> <E>
46.083

> <-TS>
32.806

> <U+W>
24.621

> <U>
74.314

> <W>
-49.693

> <W(PB)>
-51.902

> <W(SA)>
2.209

> <Valence>
4.913

> <Coulomb>
68.873

> <VdW>
0.528

> <VdW6>
-8.387

> <VdW12>
8.915

> <Bond>
0.278

> <Angle>
1.572

> <Pdih>
3.063

> <Idih>
0.000

> <Tether>
0.000

$$$$
VeraChem MOL file


 26 25  0  0  0  0  0  0  0  0999 V2000     
   20.3304   18.5050   26.0411 N   0  3  0  0  0  0  0  0  0  0  0  0
   21.2065   18.0291   25.7752 H   0  0  0  0  0  0  0  0  0  0  0  0
   19.6333   17.7530   26.1563 H   0  0  0  0  0  0  0  0  0  0  0  0
   19.8973   19.4558   24.9432 C   0  0  0  0  0  0  0  0  0  0  0  0
   20.6633   20.2296   24.8483 H   0  0  0  0  0  0  0  0  0  0  0  0
   18.9653   19.9310   25.2596 H   0  0  0  0  0  0  0  0  0  0  0  0
   19.6901   18.7631   23.5841 C   0  0  0  0  0  0  0  0  0  0  0  0
   20.6212   18.2680   23.2868 H   0  0  0  0  0  0  0  0  0  0  0  0
   18.9317   17.9761   23.6904 H   0  0  0  0  0  0  0  0  0  0  0  0
   19.2390   19.7724   22.5009 C   0  0  0  0  0  0  0  0  0  0  0  0
   19.9593   20.5986   22.4231 H   0  0  0  0  0  0  0  0  0  0  0  0
   18.2931   20.2253   22.8297 H   0  0  0  0  0  0  0  0  0  0  0  0
   19.0159   19.1273   21.1079 C   0  0  0  0  0  0  0  0  0  0  0  0
   18.6982   18.0813   21.2179 H   0  0  0  0  0  0  0  0  0  0  0  0
   18.1742   19.6419   20.6238 H   0  0  0  0  0  0  0  0  0  0  0  0
   20.2302   19.2174   20.1483 C   0  0  0  0  0  0  0  0  0  0  0  0
   20.4744   20.2724   19.9610 H   0  0  0  0  0  0  0  0  0  0  0  0
   19.9374   18.7967   19.1761 H   0  0  0  0  0  0  0  0  0  0  0  0
   21.4927   18.4802   20.6460 C   0  0  0  0  0  0  0  0  0  0  0  0
   21.9235   18.9759   21.5246 H   0  0  0  0  0  0  0  0  0  0  0  0
   22.2641   18.4713   19.8652 H   0  0  0  0  0  0  0  0  0  0  0  0
   21.2670   17.4380   20.9063 H   0  0  0  0  0  0  0  0  0  0  0  0
   20.5124   19.2687   27.3455 C   0  0  0  0  0  0  0  0  0  0  0  0
   19.5650   19.7357   27.6235 H   0  0  0  0  0  0  0  0  0  0  0  0
   20.8240   18.5726   28.1276 H   0  0  0  0  0  0  0  0  0  0  0  0
   21.2774   20.0362   27.2087 H   0  0  0  0  0  0  0  0  0  0  0  0
  1  2  1  0  0  0  0
  1  3  1  0  0  0  0
  1  4  1  0  0  0  0
  4  5  1  0  0  0  0
  4  6  1  0  0  0  0
  4  7  1  0  0  0  0
  7  8  1  0  0  0  0
  7  9  1  0  0  0  0
  7 10  1  0  0  0  0
 10 11  1  0  0  0  0
 10 12  1  0  0  0  0
 10 13  1  0  0  0  0
 13 14  1  0  0  0  0
 13 15  1  0  0  0  0
 13 16  1  0  0  0  0
 16 17  1  0  0  0  0
 16 18  1  0  0  0  0
 16 19  1  0  0  0  0
 19 20  1  0  0  0  0
 19 21  1  0  0  0  0
 19 22  1  0  0  0  0
  1 23  1  0  0  0  0
 23 24  1  0  0  0  0
 23 25  1  0  0  0  0
 23 26  1  0  0  0  0
M  END
> <VM2 Rank>
122

> <Conf_Id>
84

> <Probability>
0.02

> <Sum Probability>
99.41

> <Delta G>
3.438

> <G>
78.904

> <E>
46.402

> <-TS>
32.503

> <U+W>
24.940

> <U>
74.070

> <W>
-49.131

> <W(PB)>
-51.425

> <W(SA)>
2.294

> <Valence>
4.689

> <Coulomb>
69.115

> <VdW>
0.266

> <VdW6>
-6.809

> <VdW12>
7.075

> <Bond>
0.212

> <Angle>
1.133

> <Pdih>
3.345

> <Idih>
0.000

> <Tether>
0.000

$$$$
VeraChem MOL file


 26 25  0  0  0  0  0  0  0  0999 V2000     
   19.9715   18.6189   26.2310 N   0  3  0  0  0  0  0  0  0  0  0  0
   20.9049   18.2016   26.3683 H   0  0  0  0  0  0  0  0  0  0  0  0
   19.4051   18.2587   27.0153 H   0  0  0  0  0  0  0  0  0  0  0  0
   19.3705   18.1367   24.9176 C   0  0  0  0  0  0  0  0  0  0  0  0
   18.3850   18.5934   24.7974 H   0  0  0  0  0  0  0  0  0  0  0  0
   19.2257   17.0589   25.0274 H   0  0  0  0  0  0  0  0  0  0  0  0
   20.2284   18.3808   23.6560 C   0  0  0  0  0  0  0  0  0  0  0  0
   21.2947   18.3551   23.9162 H   0  0  0  0  0  0  0  0  0  0  0  0
   20.0554   17.5413   22.9713 H   0  0  0  0  0  0  0  0  0  0  0  0
   19.8758   19.7017   22.9259 C   0  0  0  0  0  0  0  0  0  0  0  0
   19.9577   20.5452   23.6213 H   0  0  0  0  0  0  0  0  0  0  0  0
   18.8243   19.6787   22.6104 H   0  0  0  0  0  0  0  0  0  0  0  0
   20.7869   19.9968   21.7061 C   0  0  0  0  0  0  0  0  0  0  0  0
   20.4955   20.9646   21.2752 H   0  0  0  0  0  0  0  0  0  0  0  0
   21.8208   20.1236   22.0555 H   0  0  0  0  0  0  0  0  0  0  0  0
   20.7665   18.9250   20.5861 C   0  0  0  0  0  0  0  0  0  0  0  0
   21.1718   17.9756   20.9607 H   0  0  0  0  0  0  0  0  0  0  0  0
   21.4466   19.2449   19.7843 H   0  0  0  0  0  0  0  0  0  0  0  0
   19.3626   18.6919   19.9830 C   0  0  0  0  0  0  0  0  0  0  0  0
   18.9289   19.6318   19.6178 H   0  0  0  0  0  0  0  0  0  0  0  0
   18.6748   18.2590   20.7199 H   0  0  0  0  0  0  0  0  0  0  0  0
   19.4187   17.9965   19.1356 H   0  0  0  0  0  0  0  0  0  0  0  0
   20.0458   20.1382   26.3114 C   0  0  0  0  0  0  0  0  0  0  0  0
   20.7423   20.5043   25.5549 H   0  0  0  0  0  0  0  0  0  0  0  0
   19.0518   20.5567   26.1396 H   0  0  0  0  0  0  0  0  0  0  0  0
   20.4012   20.4256   27.3035 H   0  0  0  0  0  0  0  0  0  0  0  0
  1  2  1  0  0  0  0
  1  3  1  0  0  0  0
  1  4  1  0  0  0  0
  4  5  1  0  0  0  0
  4  6  1  0  0  0  0
  4  7  1  0  0  0  0
  7  8  1  0  0  0  0
  7  9  1  0  0  0  0
  7 10  1  0  0  0  0
 10 11  1  0  0  0  0
 10 12  1  0  0  0  0
 10 13  1  0  0  0  0
 13 14  1  0  0  0  0
 13 15  1  0  0  0  0
 13 16  1  0  0  0  0
 16 17  1  0  0  0  0
 16 18  1  0  0  0  0
 16 19  1  0  0  0  0
 19 20  1  0  0  0  0
 19 21  1  0  0  0  0
 19 22  1  0  0  0  0
  1 23  1  0  0  0  0
 23 24  1  0  0  0  0
 23 25  1  0  0  0  0
 23 26  1  0  0  0  0
M  END
> <VM2 Rank>
123

> <Conf_Id>
233

> <Probability>
0.02

> <Sum Probability>
99.43

> <Delta G>
3.443

> <G>
78.909

> <E>
46.102

> <-TS>
32.806

> <U+W>
24.640

> <U>
74.315

> <W>
-49.674

> <W(PB)>
-51.874

> <W(SA)>
2.200

> <Valence>
4.913

> <Coulomb>
68.873

> <VdW>
0.528

> <VdW6>
-8.387

> <VdW12>
8.915

> <Bond>
0.278

> <Angle>
1.572

> <Pdih>
3.063

> <Idih>
0.000

> <Tether>
0.000

$$$$
VeraChem MOL file


 26 25  0  0  0  0  0  0  0  0999 V2000     
   19.6316   18.3773   25.9293 N   0  3  0  0  0  0  0  0  0  0  0  0
   20.2603   17.5613   25.8688 H   0  0  0  0  0  0  0  0  0  0  0  0
   18.7045   18.0324   25.6355 H   0  0  0  0  0  0  0  0  0  0  0  0
   20.1036   19.4716   24.9930 C   0  0  0  0  0  0  0  0  0  0  0  0
   21.0882   19.8022   25.3334 H   0  0  0  0  0  0  0  0  0  0  0  0
   19.4091   20.3109   25.0809 H   0  0  0  0  0  0  0  0  0  0  0  0
   20.1880   19.0210   23.5234 C   0  0  0  0  0  0  0  0  0  0  0  0
   20.8753   18.1686   23.4413 H   0  0  0  0  0  0  0  0  0  0  0  0
   19.1970   18.6790   23.2003 H   0  0  0  0  0  0  0  0  0  0  0  0
   20.6694   20.1702   22.6088 C   0  0  0  0  0  0  0  0  0  0  0  0
   21.5947   20.5925   23.0248 H   0  0  0  0  0  0  0  0  0  0  0  0
   19.9298   20.9828   22.6239 H   0  0  0  0  0  0  0  0  0  0  0  0
   20.9444   19.7505   21.1413 C   0  0  0  0  0  0  0  0  0  0  0  0
   21.3217   20.6356   20.6105 H   0  0  0  0  0  0  0  0  0  0  0  0
   21.7599   19.0151   21.1048 H   0  0  0  0  0  0  0  0  0  0  0  0
   19.7075   19.2184   20.3721 C   0  0  0  0  0  0  0  0  0  0  0  0
   19.7847   19.5371   19.3230 H   0  0  0  0  0  0  0  0  0  0  0  0
   18.7885   19.6794   20.7601 H   0  0  0  0  0  0  0  0  0  0  0  0
   19.5863   17.6765   20.3926 C   0  0  0  0  0  0  0  0  0  0  0  0
   19.4780   17.2834   21.4093 H   0  0  0  0  0  0  0  0  0  0  0  0
   20.4710   17.2080   19.9421 H   0  0  0  0  0  0  0  0  0  0  0  0
   18.7097   17.3528   19.8166 H   0  0  0  0  0  0  0  0  0  0  0  0
   19.5773   18.9046   27.3565 C   0  0  0  0  0  0  0  0  0  0  0  0
   19.2361   18.1070   28.0203 H   0  0  0  0  0  0  0  0  0  0  0  0
   20.5750   19.2326   27.6564 H   0  0  0  0  0  0  0  0  0  0  0  0
   18.8817   19.7455   27.4025 H   0  0  0  0  0  0  0  0  0  0  0  0
  1  2  1  0  0  0  0
  1  3  1  0  0  0  0
  1  4  1  0  0  0  0
  4  5  1  0  0  0  0
  4  6  1  0  0  0  0
  4  7  1  0  0  0  0
  7  8  1  0  0  0  0
  7  9  1  0  0  0  0
  7 10  1  0  0  0  0
 10 11  1  0  0  0  0
 10 12  1  0  0  0  0
 10 13  1  0  0  0  0
 13 14  1  0  0  0  0
 13 15  1  0  0  0  0
 13 16  1  0  0  0  0
 16 17  1  0  0  0  0
 16 18  1  0  0  0  0
 16 19  1  0  0  0  0
 19 20  1  0  0  0  0
 19 21  1  0  0  0  0
 19 22  1  0  0  0  0
  1 23  1  0  0  0  0
 23 24  1  0  0  0  0
 23 25  1  0  0  0  0
 23 26  1  0  0  0  0
M  END
> <VM2 Rank>
124

> <Conf_Id>
1099

> <Probability>
0.02

> <Sum Probability>
99.45

> <Delta G>
3.455

> <G>
78.921

> <E>
46.428

> <-TS>
32.493

> <U+W>
24.966

> <U>
74.134

> <W>
-49.168

> <W(PB)>
-51.472

> <W(SA)>
2.304

> <Valence>
4.712

> <Coulomb>
69.140

> <VdW>
0.281

> <VdW6>
-6.801

> <VdW12>
7.082

> <Bond>
0.212

> <Angle>
1.172

> <Pdih>
3.329

> <Idih>
0.000

> <Tether>
0.000

$$$$
VeraChem MOL file


 26 25  0  0  0  0  0  0  0  0999 V2000     
   19.5898   18.3661   25.7418 N   0  3  0  0  0  0  0  0  0  0  0  0
   19.6997   17.8508   26.6295 H   0  0  0  0  0  0  0  0  0  0  0  0
   19.1268   17.7013   25.1039 H   0  0  0  0  0  0  0  0  0  0  0  0
   20.9627   18.7429   25.2079 C   0  0  0  0  0  0  0  0  0  0  0  0
   21.6620   17.9910   25.5825 H   0  0  0  0  0  0  0  0  0  0  0  0
   21.2466   19.7054   25.6405 H   0  0  0  0  0  0  0  0  0  0  0  0
   21.0888   18.7861   23.6686 C   0  0  0  0  0  0  0  0  0  0  0  0
   22.1446   18.9565   23.4199 H   0  0  0  0  0  0  0  0  0  0  0  0
   20.8287   17.8011   23.2607 H   0  0  0  0  0  0  0  0  0  0  0  0
   20.2282   19.8849   22.9980 C   0  0  0  0  0  0  0  0  0  0  0  0
   20.3926   20.8376   23.5200 H   0  0  0  0  0  0  0  0  0  0  0  0
   19.1630   19.6500   23.1145 H   0  0  0  0  0  0  0  0  0  0  0  0
   20.5495   20.0875   21.4946 C   0  0  0  0  0  0  0  0  0  0  0  0
   19.9225   20.9019   21.1062 H   0  0  0  0  0  0  0  0  0  0  0  0
   21.5872   20.4343   21.3944 H   0  0  0  0  0  0  0  0  0  0  0  0
   20.3534   18.8344   20.6033 C   0  0  0  0  0  0  0  0  0  0  0  0
   21.0530   18.0424   20.9025 H   0  0  0  0  0  0  0  0  0  0  0  0
   20.6202   19.0955   19.5697 H   0  0  0  0  0  0  0  0  0  0  0  0
   18.9079   18.2873   20.6204 C   0  0  0  0  0  0  0  0  0  0  0  0
   18.8007   17.4618   19.9050 H   0  0  0  0  0  0  0  0  0  0  0  0
   18.1873   19.0676   20.3430 H   0  0  0  0  0  0  0  0  0  0  0  0
   18.6345   17.9029   21.6109 H   0  0  0  0  0  0  0  0  0  0  0  0
   18.7278   19.6008   25.9823 C   0  0  0  0  0  0  0  0  0  0  0  0
   19.2323   20.2547   26.6969 H   0  0  0  0  0  0  0  0  0  0  0  0
   18.5744   20.1322   25.0424 H   0  0  0  0  0  0  0  0  0  0  0  0
   17.7632   19.2883   26.3884 H   0  0  0  0  0  0  0  0  0  0  0  0
  1  2  1  0  0  0  0
  1  3  1  0  0  0  0
  1  4  1  0  0  0  0
  4  5  1  0  0  0  0
  4  6  1  0  0  0  0
  4  7  1  0  0  0  0
  7  8  1  0  0  0  0
  7  9  1  0  0  0  0
  7 10  1  0  0  0  0
 10 11  1  0  0  0  0
 10 12  1  0  0  0  0
 10 13  1  0  0  0  0
 13 14  1  0  0  0  0
 13 15  1  0  0  0  0
 13 16  1  0  0  0  0
 16 17  1  0  0  0  0
 16 18  1  0  0  0  0
 16 19  1  0  0  0  0
 19 20  1  0  0  0  0
 19 21  1  0  0  0  0
 19 22  1  0  0  0  0
  1 23  1  0  0  0  0
 23 24  1  0  0  0  0
 23 25  1  0  0  0  0
 23 26  1  0  0  0  0
M  END
> <VM2 Rank>
125

> <Conf_Id>
859

> <Probability>
0.02

> <Sum Probability>
99.48

> <Delta G>
3.463

> <G>
78.929

> <E>
45.990

> <-TS>
32.939

> <U+W>
24.529

> <U>
74.342

> <W>
-49.814

> <W(PB)>
-52.009

> <W(SA)>
2.196

> <Valence>
4.643

> <Coulomb>
69.388

> <VdW>
0.311

> <VdW6>
-8.574

> <VdW12>
8.885

> <Bond>
0.266

> <Angle>
1.427

> <Pdih>
2.951

> <Idih>
0.000

> <Tether>
0.000

$$$$
VeraChem MOL file


 26 25  0  0  0  0  0  0  0  0999 V2000     
   19.9598   18.8123   26.1099 N   0  3  0  0  0  0  0  0  0  0  0  0
   20.3478   18.4832   27.0081 H   0  0  0  0  0  0  0  0  0  0  0  0
   19.1171   18.2379   25.9573 H   0  0  0  0  0  0  0  0  0  0  0  0
   20.9734   18.5671   25.0038 C   0  0  0  0  0  0  0  0  0  0  0  0
   21.6090   17.7426   25.3368 H   0  0  0  0  0  0  0  0  0  0  0  0
   21.6029   19.4558   24.9132 H   0  0  0  0  0  0  0  0  0  0  0  0
   20.3793   18.1869   23.6291 C   0  0  0  0  0  0  0  0  0  0  0  0
   21.2183   17.9500   22.9637 H   0  0  0  0  0  0  0  0  0  0  0  0
   19.7917   17.2649   23.7286 H   0  0  0  0  0  0  0  0  0  0  0  0
   19.5074   19.2973   22.9918 C   0  0  0  0  0  0  0  0  0  0  0  0
   20.0768   20.2347   22.9389 H   0  0  0  0  0  0  0  0  0  0  0  0
   18.6475   19.4975   23.6436 H   0  0  0  0  0  0  0  0  0  0  0  0
   18.9578   18.9295   21.5886 C   0  0  0  0  0  0  0  0  0  0  0  0
   18.3113   18.0456   21.6782 H   0  0  0  0  0  0  0  0  0  0  0  0
   18.3054   19.7436   21.2439 H   0  0  0  0  0  0  0  0  0  0  0  0
   20.0291   18.6569   20.5014 C   0  0  0  0  0  0  0  0  0  0  0  0
   19.5165   18.4265   19.5570 H   0  0  0  0  0  0  0  0  0  0  0  0
   20.6077   17.7583   20.7531 H   0  0  0  0  0  0  0  0  0  0  0  0
   20.9877   19.8468   20.2688 C   0  0  0  0  0  0  0  0  0  0  0  0
   20.4302   20.7632   20.0356 H   0  0  0  0  0  0  0  0  0  0  0  0
   21.6605   19.6397   19.4266 H   0  0  0  0  0  0  0  0  0  0  0  0
   21.6122   20.0384   21.1502 H   0  0  0  0  0  0  0  0  0  0  0  0
   19.6135   20.2931   26.2236 C   0  0  0  0  0  0  0  0  0  0  0  0
   19.1792   20.6429   25.2862 H   0  0  0  0  0  0  0  0  0  0  0  0
   18.8952   20.4300   27.0350 H   0  0  0  0  0  0  0  0  0  0  0  0
   20.5236   20.8567   26.4401 H   0  0  0  0  0  0  0  0  0  0  0  0
  1  2  1  0  0  0  0
  1  3  1  0  0  0  0
  1  4  1  0  0  0  0
  4  5  1  0  0  0  0
  4  6  1  0  0  0  0
  4  7  1  0  0  0  0
  7  8  1  0  0  0  0
  7  9  1  0  0  0  0
  7 10  1  0  0  0  0
 10 11  1  0  0  0  0
 10 12  1  0  0  0  0
 10 13  1  0  0  0  0
 13 14  1  0  0  0  0
 13 15  1  0  0  0  0
 13 16  1  0  0  0  0
 16 17  1  0  0  0  0
 16 18  1  0  0  0  0
 16 19  1  0  0  0  0
 19 20  1  0  0  0  0
 19 21  1  0  0  0  0
 19 22  1  0  0  0  0
  1 23  1  0  0  0  0
 23 24  1  0  0  0  0
 23 25  1  0  0  0  0
 23 26  1  0  0  0  0
M  END
> <VM2 Rank>
126

> <Conf_Id>
752

> <Probability>
0.02

> <Sum Probability>
99.50

> <Delta G>
3.478

> <G>
78.944

> <E>
46.055

> <-TS>
32.889

> <U+W>
24.594

> <U>
74.262

> <W>
-49.668

> <W(PB)>
-51.875

> <W(SA)>
2.207

> <Valence>
4.837

> <Coulomb>
68.998

> <VdW>
0.426

> <VdW6>
-8.427

> <VdW12>
8.853

> <Bond>
0.274

> <Angle>
1.562

> <Pdih>
3.001

> <Idih>
0.000

> <Tether>
0.000

$$$$
VeraChem MOL file


 26 25  0  0  0  0  0  0  0  0999 V2000     
   20.3598   19.3846   25.5790 N   0  3  0  0  0  0  0  0  0  0  0  0
   21.2366   19.5456   25.0614 H   0  0  0  0  0  0  0  0  0  0  0  0
   20.5777   18.6499   26.2700 H   0  0  0  0  0  0  0  0  0  0  0  0
   19.2756   18.9061   24.6331 C   0  0  0  0  0  0  0  0  0  0  0  0
   19.0683   19.7127   23.9290 H   0  0  0  0  0  0  0  0  0  0  0  0
   18.3743   18.7384   25.2281 H   0  0  0  0  0  0  0  0  0  0  0  0
   19.6318   17.6083   23.8762 C   0  0  0  0  0  0  0  0  0  0  0  0
   19.8445   16.8286   24.6197 H   0  0  0  0  0  0  0  0  0  0  0  0
   18.7528   17.2589   23.3186 H   0  0  0  0  0  0  0  0  0  0  0  0
   20.8449   17.7296   22.9148 C   0  0  0  0  0  0  0  0  0  0  0  0
   21.2702   16.7251   22.7820 H   0  0  0  0  0  0  0  0  0  0  0  0
   21.6447   18.3262   23.3720 H   0  0  0  0  0  0  0  0  0  0  0  0
   20.5143   18.2812   21.5033 C   0  0  0  0  0  0  0  0  0  0  0  0
   21.4303   18.2357   20.8981 H   0  0  0  0  0  0  0  0  0  0  0  0
   19.7915   17.6170   21.0097 H   0  0  0  0  0  0  0  0  0  0  0  0
   19.9754   19.7303   21.4846 C   0  0  0  0  0  0  0  0  0  0  0  0
   20.6216   20.3789   22.0924 H   0  0  0  0  0  0  0  0  0  0  0  0
   18.9718   19.7613   21.9276 H   0  0  0  0  0  0  0  0  0  0  0  0
   19.8950   20.2895   20.0480 C   0  0  0  0  0  0  0  0  0  0  0  0
   20.8865   20.3152   19.5773 H   0  0  0  0  0  0  0  0  0  0  0  0
   19.4985   21.3131   20.0521 H   0  0  0  0  0  0  0  0  0  0  0  0
   19.2350   19.6752   19.4217 H   0  0  0  0  0  0  0  0  0  0  0  0
   19.9112   20.6604   26.2779 C   0  0  0  0  0  0  0  0  0  0  0  0
   19.7178   21.4313   25.5288 H   0  0  0  0  0  0  0  0  0  0  0  0
   18.9998   20.4578   26.8445 H   0  0  0  0  0  0  0  0  0  0  0  0
   20.7003   20.9941   26.9555 H   0  0  0  0  0  0  0  0  0  0  0  0
  1  2  1  0  0  0  0
  1  3  1  0  0  0  0
  1  4  1  0  0  0  0
  4  5  1  0  0  0  0
  4  6  1  0  0  0  0
  4  7  1  0  0  0  0
  7  8  1  0  0  0  0
  7  9  1  0  0  0  0
  7 10  1  0  0  0  0
 10 11  1  0  0  0  0
 10 12  1  0  0  0  0
 10 13  1  0  0  0  0
 13 14  1  0  0  0  0
 13 15  1  0  0  0  0
 13 16  1  0  0  0  0
 16 17  1  0  0  0  0
 16 18  1  0  0  0  0
 16 19  1  0  0  0  0
 19 20  1  0  0  0  0
 19 21  1  0  0  0  0
 19 22  1  0  0  0  0
  1 23  1  0  0  0  0
 23 24  1  0  0  0  0
 23 25  1  0  0  0  0
 23 26  1  0  0  0  0
M  END
> <VM2 Rank>
127

> <Conf_Id>
1240

> <Probability>
0.02

> <Sum Probability>
99.52

> <Delta G>
3.544

> <G>
79.010

> <E>
46.520

> <-TS>
32.490

> <U+W>
25.058

> <U>
74.584

> <W>
-49.527

> <W(PB)>
-51.787

> <W(SA)>
2.260

> <Valence>
4.289

> <Coulomb>
70.231

> <VdW>
0.064

> <VdW6>
-7.674

> <VdW12>
7.738

> <Bond>
0.226

> <Angle>
1.378

> <Pdih>
2.686

> <Idih>
0.000

> <Tether>
0.000

$$$$
VeraChem MOL file


 26 25  0  0  0  0  0  0  0  0999 V2000     
   20.7789   18.6471   25.3956 N   0  3  0  0  0  0  0  0  0  0  0  0
   21.3409   18.8049   24.5476 H   0  0  0  0  0  0  0  0  0  0  0  0
   21.2503   17.8751   25.8933 H   0  0  0  0  0  0  0  0  0  0  0  0
   19.3686   18.2211   25.0190 C   0  0  0  0  0  0  0  0  0  0  0  0
   18.8064   18.1281   25.9516 H   0  0  0  0  0  0  0  0  0  0  0  0
   19.4287   17.2284   24.5659 H   0  0  0  0  0  0  0  0  0  0  0  0
   18.6078   19.1680   24.0617 C   0  0  0  0  0  0  0  0  0  0  0  0
   17.5408   18.9190   24.1319 H   0  0  0  0  0  0  0  0  0  0  0  0
   18.6917   20.2082   24.4009 H   0  0  0  0  0  0  0  0  0  0  0  0
   19.0228   19.0524   22.5725 C   0  0  0  0  0  0  0  0  0  0  0  0
   18.3215   19.6527   21.9765 H   0  0  0  0  0  0  0  0  0  0  0  0
   18.8952   18.0129   22.2415 H   0  0  0  0  0  0  0  0  0  0  0  0
   20.4664   19.5277   22.2716 C   0  0  0  0  0  0  0  0  0  0  0  0
   20.6440   20.4895   22.7725 H   0  0  0  0  0  0  0  0  0  0  0  0
   21.1903   18.8140   22.6831 H   0  0  0  0  0  0  0  0  0  0  0  0
   20.7488   19.7010   20.7597 C   0  0  0  0  0  0  0  0  0  0  0  0
   21.7580   20.1176   20.6335 H   0  0  0  0  0  0  0  0  0  0  0  0
   20.0564   20.4407   20.3341 H   0  0  0  0  0  0  0  0  0  0  0  0
   20.6506   18.3796   19.9637 C   0  0  0  0  0  0  0  0  0  0  0  0
   21.3195   17.6159   20.3813 H   0  0  0  0  0  0  0  0  0  0  0  0
   20.9369   18.5396   18.9162 H   0  0  0  0  0  0  0  0  0  0  0  0
   19.6283   17.9813   19.9691 H   0  0  0  0  0  0  0  0  0  0  0  0
   20.7640   19.8932   26.2733 C   0  0  0  0  0  0  0  0  0  0  0  0
   20.1741   19.6928   27.1703 H   0  0  0  0  0  0  0  0  0  0  0  0
   21.7891   20.1440   26.5549 H   0  0  0  0  0  0  0  0  0  0  0  0
   20.3233   20.7230   25.7174 H   0  0  0  0  0  0  0  0  0  0  0  0
  1  2  1  0  0  0  0
  1  3  1  0  0  0  0
  1  4  1  0  0  0  0
  4  5  1  0  0  0  0
  4  6  1  0  0  0  0
  4  7  1  0  0  0  0
  7  8  1  0  0  0  0
  7  9  1  0  0  0  0
  7 10  1  0  0  0  0
 10 11  1  0  0  0  0
 10 12  1  0  0  0  0
 10 13  1  0  0  0  0
 13 14  1  0  0  0  0
 13 15  1  0  0  0  0
 13 16  1  0  0  0  0
 16 17  1  0  0  0  0
 16 18  1  0  0  0  0
 16 19  1  0  0  0  0
 19 20  1  0  0  0  0
 19 21  1  0  0  0  0
 19 22  1  0  0  0  0
  1 23  1  0  0  0  0
 23 24  1  0  0  0  0
 23 25  1  0  0  0  0
 23 26  1  0  0  0  0
M  END
> <VM2 Rank>
128

> <Conf_Id>
749

> <Probability>
0.02

> <Sum Probability>
99.53

> <Delta G>
3.551

> <G>
79.017

> <E>
46.514

> <-TS>
32.503

> <U+W>
25.052

> <U>
74.899

> <W>
-49.847

> <W(PB)>
-52.061

> <W(SA)>
2.214

> <Valence>
4.085

> <Coulomb>
70.542

> <VdW>
0.273

> <VdW6>
-8.421

> <VdW12>
8.694

> <Bond>
0.258

> <Angle>
1.367

> <Pdih>
2.459

> <Idih>
0.000

> <Tether>
0.000

$$$$
VeraChem MOL file


 26 25  0  0  0  0  0  0  0  0999 V2000     
   19.9455   18.9622   26.2809 N   0  3  0  0  0  0  0  0  0  0  0  0
   19.8012   17.9480   26.4038 H   0  0  0  0  0  0  0  0  0  0  0  0
   19.4964   19.3964   27.1029 H   0  0  0  0  0  0  0  0  0  0  0  0
   19.2570   19.4413   25.0137 C   0  0  0  0  0  0  0  0  0  0  0  0
   19.4677   20.5075   24.8990 H   0  0  0  0  0  0  0  0  0  0  0  0
   18.1809   19.3226   25.1641 H   0  0  0  0  0  0  0  0  0  0  0  0
   19.6704   18.6848   23.7351 C   0  0  0  0  0  0  0  0  0  0  0  0
   20.7450   18.8110   23.5662 H   0  0  0  0  0  0  0  0  0  0  0  0
   19.4962   17.6102   23.8784 H   0  0  0  0  0  0  0  0  0  0  0  0
   18.8693   19.1786   22.5065 C   0  0  0  0  0  0  0  0  0  0  0  0
   18.9821   20.2652   22.3873 H   0  0  0  0  0  0  0  0  0  0  0  0
   17.8021   19.0045   22.7026 H   0  0  0  0  0  0  0  0  0  0  0  0
   19.2506   18.4560   21.1879 C   0  0  0  0  0  0  0  0  0  0  0  0
   19.5860   17.4309   21.3974 H   0  0  0  0  0  0  0  0  0  0  0  0
   18.3410   18.3506   20.5804 H   0  0  0  0  0  0  0  0  0  0  0  0
   20.3042   19.1953   20.3235 C   0  0  0  0  0  0  0  0  0  0  0  0
   19.9147   20.1801   20.0301 H   0  0  0  0  0  0  0  0  0  0  0  0
   20.4438   18.6337   19.3892 H   0  0  0  0  0  0  0  0  0  0  0  0
   21.6791   19.3709   21.0049 C   0  0  0  0  0  0  0  0  0  0  0  0
   22.4095   19.7792   20.2945 H   0  0  0  0  0  0  0  0  0  0  0  0
   22.0666   18.4110   21.3698 H   0  0  0  0  0  0  0  0  0  0  0  0
   21.6196   20.0689   21.8490 H   0  0  0  0  0  0  0  0  0  0  0  0
   21.4319   19.3009   26.2645 C   0  0  0  0  0  0  0  0  0  0  0  0
   21.8824   18.9761   27.2050 H   0  0  0  0  0  0  0  0  0  0  0  0
   21.9117   18.7847   25.4306 H   0  0  0  0  0  0  0  0  0  0  0  0
   21.5526   20.3805   26.1515 H   0  0  0  0  0  0  0  0  0  0  0  0
  1  2  1  0  0  0  0
  1  3  1  0  0  0  0
  1  4  1  0  0  0  0
  4  5  1  0  0  0  0
  4  6  1  0  0  0  0
  4  7  1  0  0  0  0
  7  8  1  0  0  0  0
  7  9  1  0  0  0  0
  7 10  1  0  0  0  0
 10 11  1  0  0  0  0
 10 12  1  0  0  0  0
 10 13  1  0  0  0  0
 13 14  1  0  0  0  0
 13 15  1  0  0  0  0
 13 16  1  0  0  0  0
 16 17  1  0  0  0  0
 16 18  1  0  0  0  0
 16 19  1  0  0  0  0
 19 20  1  0  0  0  0
 19 21  1  0  0  0  0
 19 22  1  0  0  0  0
  1 23  1  0  0  0  0
 23 24  1  0  0  0  0
 23 25  1  0  0  0  0
 23 26  1  0  0  0  0
M  END
> <VM2 Rank>
129

> <Conf_Id>
1370

> <Probability>
0.02

> <Sum Probability>
99.55

> <Delta G>
3.588

> <G>
79.054

> <E>
46.370

> <-TS>
32.684

> <U+W>
24.909

> <U>
74.399

> <W>
-49.491

> <W(PB)>
-51.725

> <W(SA)>
2.234

> <Valence>
4.964

> <Coulomb>
68.942

> <VdW>
0.494

> <VdW6>
-7.589

> <VdW12>
8.083

> <Bond>
0.249

> <Angle>
1.244

> <Pdih>
3.471

> <Idih>
0.000

> <Tether>
0.000

$$$$
VeraChem MOL file


 26 25  0  0  0  0  0  0  0  0999 V2000     
   19.2785   18.4939   25.3424 N   0  3  0  0  0  0  0  0  0  0  0  0
   18.9390   17.6392   25.8115 H   0  0  0  0  0  0  0  0  0  0  0  0
   18.7570   18.5410   24.4561 H   0  0  0  0  0  0  0  0  0  0  0  0
   20.7687   18.3641   25.0687 C   0  0  0  0  0  0  0  0  0  0  0  0
   20.9421   17.3828   24.6197 H   0  0  0  0  0  0  0  0  0  0  0  0
   21.2713   18.3800   26.0391 H   0  0  0  0  0  0  0  0  0  0  0  0
   21.3878   19.4518   24.1602 C   0  0  0  0  0  0  0  0  0  0  0  0
   21.0723   20.4511   24.4852 H   0  0  0  0  0  0  0  0  0  0  0  0
   22.4756   19.4227   24.3067 H   0  0  0  0  0  0  0  0  0  0  0  0
   21.1100   19.2653   22.6464 C   0  0  0  0  0  0  0  0  0  0  0  0
   21.4675   18.2753   22.3327 H   0  0  0  0  0  0  0  0  0  0  0  0
   21.7157   19.9989   22.0967 H   0  0  0  0  0  0  0  0  0  0  0  0
   19.6248   19.4417   22.2418 C   0  0  0  0  0  0  0  0  0  0  0  0
   19.0328   18.5937   22.6066 H   0  0  0  0  0  0  0  0  0  0  0  0
   19.2222   20.3442   22.7222 H   0  0  0  0  0  0  0  0  0  0  0  0
   19.4198   19.5653   20.7126 C   0  0  0  0  0  0  0  0  0  0  0  0
   19.9767   20.4327   20.3314 H   0  0  0  0  0  0  0  0  0  0  0  0
   18.3587   19.7706   20.5132 H   0  0  0  0  0  0  0  0  0  0  0  0
   19.8383   18.2968   19.9348 C   0  0  0  0  0  0  0  0  0  0  0  0
   19.5998   18.4034   18.8687 H   0  0  0  0  0  0  0  0  0  0  0  0
   19.3097   17.4108   20.3098 H   0  0  0  0  0  0  0  0  0  0  0  0
   20.9170   18.1130   20.0147 H   0  0  0  0  0  0  0  0  0  0  0  0
   18.9801   19.7112   26.2100 C   0  0  0  0  0  0  0  0  0  0  0  0
   19.5338   19.6276   27.1476 H   0  0  0  0  0  0  0  0  0  0  0  0
   19.2822   20.6167   25.6804 H   0  0  0  0  0  0  0  0  0  0  0  0
   17.9083   19.7479   26.4172 H   0  0  0  0  0  0  0  0  0  0  0  0
  1  2  1  0  0  0  0
  1  3  1  0  0  0  0
  1  4  1  0  0  0  0
  4  5  1  0  0  0  0
  4  6  1  0  0  0  0
  4  7  1  0  0  0  0
  7  8  1  0  0  0  0
  7  9  1  0  0  0  0
  7 10  1  0  0  0  0
 10 11  1  0  0  0  0
 10 12  1  0  0  0  0
 10 13  1  0  0  0  0
 13 14  1  0  0  0  0
 13 15  1  0  0  0  0
 13 16  1  0  0  0  0
 16 17  1  0  0  0  0
 16 18  1  0  0  0  0
 16 19  1  0  0  0  0
 19 20  1  0  0  0  0
 19 21  1  0  0  0  0
 19 22  1  0  0  0  0
  1 23  1  0  0  0  0
 23 24  1  0  0  0  0
 23 25  1  0  0  0  0
 23 26  1  0  0  0  0
M  END
> <VM2 Rank>
130

> <Conf_Id>
1356

> <Probability>
0.02

> <Sum Probability>
99.57

> <Delta G>
3.612

> <G>
79.078

> <E>
46.575

> <-TS>
32.503

> <U+W>
25.113

> <U>
74.899

> <W>
-49.786

> <W(PB)>
-51.982

> <W(SA)>
2.195

> <Valence>
4.085

> <Coulomb>
70.542

> <VdW>
0.273

> <VdW6>
-8.421

> <VdW12>
8.694

> <Bond>
0.258

> <Angle>
1.368

> <Pdih>
2.459

> <Idih>
0.000

> <Tether>
0.000

$$$$
VeraChem MOL file


 26 25  0  0  0  0  0  0  0  0999 V2000     
   20.5436   18.7329   26.1390 N   0  3  0  0  0  0  0  0  0  0  0  0
   20.8964   19.1613   27.0095 H   0  0  0  0  0  0  0  0  0  0  0  0
   21.2707   18.0553   25.8623 H   0  0  0  0  0  0  0  0  0  0  0  0
   20.3895   19.8038   25.0718 C   0  0  0  0  0  0  0  0  0  0  0  0
   21.3223   20.3729   25.0461 H   0  0  0  0  0  0  0  0  0  0  0  0
   19.5891   20.4786   25.3854 H   0  0  0  0  0  0  0  0  0  0  0  0
   20.0946   19.2615   23.6586 C   0  0  0  0  0  0  0  0  0  0  0  0
   20.8809   18.5482   23.3827 H   0  0  0  0  0  0  0  0  0  0  0  0
   19.1412   18.7178   23.6607 H   0  0  0  0  0  0  0  0  0  0  0  0
   20.0360   20.4037   22.6193 C   0  0  0  0  0  0  0  0  0  0  0  0
   21.0219   20.8838   22.5486 H   0  0  0  0  0  0  0  0  0  0  0  0
   19.3449   21.1782   22.9803 H   0  0  0  0  0  0  0  0  0  0  0  0
   19.5749   19.9624   21.2058 C   0  0  0  0  0  0  0  0  0  0  0  0
   18.5453   19.5810   21.2459 H   0  0  0  0  0  0  0  0  0  0  0  0
   19.5315   20.8625   20.5771 H   0  0  0  0  0  0  0  0  0  0  0  0
   20.5014   18.9323   20.5091 C   0  0  0  0  0  0  0  0  0  0  0  0
   21.5388   19.0605   20.8484 H   0  0  0  0  0  0  0  0  0  0  0  0
   20.5090   19.1427   19.4304 H   0  0  0  0  0  0  0  0  0  0  0  0
   20.0485   17.4662   20.7041 C   0  0  0  0  0  0  0  0  0  0  0  0
   19.0378   17.3120   20.3046 H   0  0  0  0  0  0  0  0  0  0  0  0
   20.0420   17.1718   21.7592 H   0  0  0  0  0  0  0  0  0  0  0  0
   20.7233   16.7824   20.1731 H   0  0  0  0  0  0  0  0  0  0  0  0
   19.2194   18.0273   26.4093 C   0  0  0  0  0  0  0  0  0  0  0  0
   18.8862   17.5223   25.5004 H   0  0  0  0  0  0  0  0  0  0  0  0
   19.3620   17.2933   27.2055 H   0  0  0  0  0  0  0  0  0  0  0  0
   18.4759   18.7656   26.7174 H   0  0  0  0  0  0  0  0  0  0  0  0
  1  2  1  0  0  0  0
  1  3  1  0  0  0  0
  1  4  1  0  0  0  0
  4  5  1  0  0  0  0
  4  6  1  0  0  0  0
  4  7  1  0  0  0  0
  7  8  1  0  0  0  0
  7  9  1  0  0  0  0
  7 10  1  0  0  0  0
 10 11  1  0  0  0  0
 10 12  1  0  0  0  0
 10 13  1  0  0  0  0
 13 14  1  0  0  0  0
 13 15  1  0  0  0  0
 13 16  1  0  0  0  0
 16 17  1  0  0  0  0
 16 18  1  0  0  0  0
 16 19  1  0  0  0  0
 19 20  1  0  0  0  0
 19 21  1  0  0  0  0
 19 22  1  0  0  0  0
  1 23  1  0  0  0  0
 23 24  1  0  0  0  0
 23 25  1  0  0  0  0
 23 26  1  0  0  0  0
M  END
> <VM2 Rank>
131

> <Conf_Id>
838

> <Probability>
0.02

> <Sum Probability>
99.58

> <Delta G>
3.617

> <G>
79.083

> <E>
46.412

> <-TS>
32.671

> <U+W>
24.950

> <U>
74.475

> <W>
-49.525

> <W(PB)>
-51.777

> <W(SA)>
2.252

> <Valence>
4.983

> <Coulomb>
68.966

> <VdW>
0.526

> <VdW6>
-7.550

> <VdW12>
8.077

> <Bond>
0.247

> <Angle>
1.294

> <Pdih>
3.441

> <Idih>
0.000

> <Tether>
0.000

$$$$
VeraChem MOL file


 26 25  0  0  0  0  0  0  0  0999 V2000     
   19.9671   18.9641   26.2816 N   0  3  0  0  0  0  0  0  0  0  0  0
   20.2606   19.4739   27.1301 H   0  0  0  0  0  0  0  0  0  0  0  0
   20.3040   17.9990   26.4213 H   0  0  0  0  0  0  0  0  0  0  0  0
   20.6318   19.5816   25.0625 C   0  0  0  0  0  0  0  0  0  0  0  0
   21.6964   19.6815   25.2888 H   0  0  0  0  0  0  0  0  0  0  0  0
   20.2187   20.5841   24.9259 H   0  0  0  0  0  0  0  0  0  0  0  0
   20.4702   18.7665   23.7634 C   0  0  0  0  0  0  0  0  0  0  0  0
   20.8475   17.7483   23.9260 H   0  0  0  0  0  0  0  0  0  0  0  0
   19.4068   18.6743   23.5188 H   0  0  0  0  0  0  0  0  0  0  0  0
   21.2390   19.4211   22.5904 C   0  0  0  0  0  0  0  0  0  0  0  0
   22.3030   19.4649   22.8621 H   0  0  0  0  0  0  0  0  0  0  0  0
   20.9174   20.4632   22.4560 H   0  0  0  0  0  0  0  0  0  0  0  0
   21.1050   18.6459   21.2535 C   0  0  0  0  0  0  0  0  0  0  0  0
   22.0574   18.7311   20.7120 H   0  0  0  0  0  0  0  0  0  0  0  0
   20.9701   17.5726   21.4463 H   0  0  0  0  0  0  0  0  0  0  0  0
   19.9867   19.1630   20.3123 C   0  0  0  0  0  0  0  0  0  0  0  0
   20.0295   18.5916   19.3744 H   0  0  0  0  0  0  0  0  0  0  0  0
   20.1885   20.2084   20.0400 H   0  0  0  0  0  0  0  0  0  0  0  0
   18.5605   19.0518   20.8945 C   0  0  0  0  0  0  0  0  0  0  0  0
   18.4183   19.7413   21.7356 H   0  0  0  0  0  0  0  0  0  0  0  0
   18.3507   18.0307   21.2381 H   0  0  0  0  0  0  0  0  0  0  0  0
   17.8142   19.3089   20.1317 H   0  0  0  0  0  0  0  0  0  0  0  0
   18.4478   18.9961   26.1588 C   0  0  0  0  0  0  0  0  0  0  0  0
   18.1200   20.0300   26.0302 H   0  0  0  0  0  0  0  0  0  0  0  0
   18.1415   18.4000   25.2969 H   0  0  0  0  0  0  0  0  0  0  0  0
   18.0073   18.5802   27.0676 H   0  0  0  0  0  0  0  0  0  0  0  0
  1  2  1  0  0  0  0
  1  3  1  0  0  0  0
  1  4  1  0  0  0  0
  4  5  1  0  0  0  0
  4  6  1  0  0  0  0
  4  7  1  0  0  0  0
  7  8  1  0  0  0  0
  7  9  1  0  0  0  0
  7 10  1  0  0  0  0
 10 11  1  0  0  0  0
 10 12  1  0  0  0  0
 10 13  1  0  0  0  0
 13 14  1  0  0  0  0
 13 15  1  0  0  0  0
 13 16  1  0  0  0  0
 16 17  1  0  0  0  0
 16 18  1  0  0  0  0
 16 19  1  0  0  0  0
 19 20  1  0  0  0  0
 19 21  1  0  0  0  0
 19 22  1  0  0  0  0
  1 23  1  0  0  0  0
 23 24  1  0  0  0  0
 23 25  1  0  0  0  0
 23 26  1  0  0  0  0
M  END
> <VM2 Rank>
132

> <Conf_Id>
1091

> <Probability>
0.02

> <Sum Probability>
99.60

> <Delta G>
3.638

> <G>
79.104

> <E>
46.420

> <-TS>
32.684

> <U+W>
24.958

> <U>
74.399

> <W>
-49.441

> <W(PB)>
-51.681

> <W(SA)>
2.240

> <Valence>
4.963

> <Coulomb>
68.942

> <VdW>
0.494

> <VdW6>
-7.589

> <VdW12>
8.083

> <Bond>
0.249

> <Angle>
1.244

> <Pdih>
3.470

> <Idih>
0.000

> <Tether>
0.000

$$$$
VeraChem MOL file


 26 25  0  0  0  0  0  0  0  0999 V2000     
   20.2399   19.2149   25.8380 N   0  3  0  0  0  0  0  0  0  0  0  0
   21.2489   19.0039   25.8834 H   0  0  0  0  0  0  0  0  0  0  0  0
   19.7827   18.4965   26.4207 H   0  0  0  0  0  0  0  0  0  0  0  0
   19.7490   19.1188   24.4078 C   0  0  0  0  0  0  0  0  0  0  0  0
   20.2537   19.8963   23.8327 H   0  0  0  0  0  0  0  0  0  0  0  0
   18.6776   19.3346   24.4072 H   0  0  0  0  0  0  0  0  0  0  0  0
   19.9969   17.7376   23.7705 C   0  0  0  0  0  0  0  0  0  0  0  0
   21.0659   17.4889   23.8048 H   0  0  0  0  0  0  0  0  0  0  0  0
   19.4836   16.9837   24.3822 H   0  0  0  0  0  0  0  0  0  0  0  0
   19.4727   17.6307   22.3158 C   0  0  0  0  0  0  0  0  0  0  0  0
   18.5106   18.1513   22.2184 H   0  0  0  0  0  0  0  0  0  0  0  0
   19.2526   16.5732   22.1147 H   0  0  0  0  0  0  0  0  0  0  0  0
   20.4686   18.1095   21.2244 C   0  0  0  0  0  0  0  0  0  0  0  0
   21.3829   17.5035   21.2874 H   0  0  0  0  0  0  0  0  0  0  0  0
   20.0353   17.8895   20.2389 H   0  0  0  0  0  0  0  0  0  0  0  0
   20.8622   19.6072   21.2641 C   0  0  0  0  0  0  0  0  0  0  0  0
   21.5703   19.8008   20.4462 H   0  0  0  0  0  0  0  0  0  0  0  0
   21.4116   19.8323   22.1868 H   0  0  0  0  0  0  0  0  0  0  0  0
   19.6584   20.5647   21.1082 C   0  0  0  0  0  0  0  0  0  0  0  0
   18.9557   20.4756   21.9451 H   0  0  0  0  0  0  0  0  0  0  0  0
   19.1106   20.3586   20.1796 H   0  0  0  0  0  0  0  0  0  0  0  0
   19.9989   21.6075   21.0715 H   0  0  0  0  0  0  0  0  0  0  0  0
   19.9602   20.6066   26.3883 C   0  0  0  0  0  0  0  0  0  0  0  0
   20.4806   21.3463   25.7758 H   0  0  0  0  0  0  0  0  0  0  0  0
   18.8846   20.7940   26.3610 H   0  0  0  0  0  0  0  0  0  0  0  0
   20.3185   20.6629   27.4186 H   0  0  0  0  0  0  0  0  0  0  0  0
  1  2  1  0  0  0  0
  1  3  1  0  0  0  0
  1  4  1  0  0  0  0
  4  5  1  0  0  0  0
  4  6  1  0  0  0  0
  4  7  1  0  0  0  0
  7  8  1  0  0  0  0
  7  9  1  0  0  0  0
  7 10  1  0  0  0  0
 10 11  1  0  0  0  0
 10 12  1  0  0  0  0
 10 13  1  0  0  0  0
 13 14  1  0  0  0  0
 13 15  1  0  0  0  0
 13 16  1  0  0  0  0
 16 17  1  0  0  0  0
 16 18  1  0  0  0  0
 16 19  1  0  0  0  0
 19 20  1  0  0  0  0
 19 21  1  0  0  0  0
 19 22  1  0  0  0  0
  1 23  1  0  0  0  0
 23 24  1  0  0  0  0
 23 25  1  0  0  0  0
 23 26  1  0  0  0  0
M  END
> <VM2 Rank>
133

> <Conf_Id>
807

> <Probability>
0.02

> <Sum Probability>
99.62

> <Delta G>
3.638

> <G>
79.104

> <E>
46.121

> <-TS>
32.984

> <U+W>
24.659

> <U>
74.250

> <W>
-49.592

> <W(PB)>
-51.810

> <W(SA)>
2.218

> <Valence>
4.607

> <Coulomb>
69.758

> <VdW>
-0.115

> <VdW6>
-8.153

> <VdW12>
8.038

> <Bond>
0.239

> <Angle>
1.671

> <Pdih>
2.697

> <Idih>
0.000

> <Tether>
0.000

$$$$
VeraChem MOL file


 26 25  0  0  0  0  0  0  0  0999 V2000     
   19.6595   19.1552   25.8175 N   0  3  0  0  0  0  0  0  0  0  0  0
   20.2116   18.5407   26.4359 H   0  0  0  0  0  0  0  0  0  0  0  0
   18.7140   18.7429   25.7938 H   0  0  0  0  0  0  0  0  0  0  0  0
   20.2584   19.1713   24.4258 C   0  0  0  0  0  0  0  0  0  0  0  0
   21.2607   19.6006   24.4984 H   0  0  0  0  0  0  0  0  0  0  0  0
   19.6474   19.8339   23.8113 H   0  0  0  0  0  0  0  0  0  0  0  0
   20.3418   17.7731   23.7828 C   0  0  0  0  0  0  0  0  0  0  0  0
   20.9537   17.1350   24.4342 H   0  0  0  0  0  0  0  0  0  0  0  0
   19.3461   17.3118   23.7440 H   0  0  0  0  0  0  0  0  0  0  0  0
   20.9773   17.7855   22.3691 C   0  0  0  0  0  0  0  0  0  0  0  0
   21.4214   16.7963   22.1915 H   0  0  0  0  0  0  0  0  0  0  0  0
   21.8178   18.4915   22.3355 H   0  0  0  0  0  0  0  0  0  0  0  0
   19.9837   18.0596   21.2072 C   0  0  0  0  0  0  0  0  0  0  0  0
   20.5205   17.9393   20.2561 H   0  0  0  0  0  0  0  0  0  0  0  0
   19.2096   17.2800   21.2105 H   0  0  0  0  0  0  0  0  0  0  0  0
   19.2921   19.4457   21.2084 C   0  0  0  0  0  0  0  0  0  0  0  0
   18.6451   19.5479   22.0887 H   0  0  0  0  0  0  0  0  0  0  0  0
   18.6185   19.4972   20.3416 H   0  0  0  0  0  0  0  0  0  0  0  0
   20.2840   20.6290   21.1303 C   0  0  0  0  0  0  0  0  0  0  0  0
   20.9297   20.6786   22.0150 H   0  0  0  0  0  0  0  0  0  0  0  0
   19.7421   21.5811   21.0622 H   0  0  0  0  0  0  0  0  0  0  0  0
   20.9261   20.5451   20.2439 H   0  0  0  0  0  0  0  0  0  0  0  0
   19.6111   20.5706   26.3759 C   0  0  0  0  0  0  0  0  0  0  0  0
   19.1778   20.5455   27.3783 H   0  0  0  0  0  0  0  0  0  0  0  0
   20.6253   20.9732   26.4225 H   0  0  0  0  0  0  0  0  0  0  0  0
   18.9952   21.1933   25.7234 H   0  0  0  0  0  0  0  0  0  0  0  0
  1  2  1  0  0  0  0
  1  3  1  0  0  0  0
  1  4  1  0  0  0  0
  4  5  1  0  0  0  0
  4  6  1  0  0  0  0
  4  7  1  0  0  0  0
  7  8  1  0  0  0  0
  7  9  1  0  0  0  0
  7 10  1  0  0  0  0
 10 11  1  0  0  0  0
 10 12  1  0  0  0  0
 10 13  1  0  0  0  0
 13 14  1  0  0  0  0
 13 15  1  0  0  0  0
 13 16  1  0  0  0  0
 16 17  1  0  0  0  0
 16 18  1  0  0  0  0
 16 19  1  0  0  0  0
 19 20  1  0  0  0  0
 19 21  1  0  0  0  0
 19 22  1  0  0  0  0
  1 23  1  0  0  0  0
 23 24  1  0  0  0  0
 23 25  1  0  0  0  0
 23 26  1  0  0  0  0
M  END
> <VM2 Rank>
134

> <Conf_Id>
164

> <Probability>
0.02

> <Sum Probability>
99.63

> <Delta G>
3.648

> <G>
79.114

> <E>
46.131

> <-TS>
32.983

> <U+W>
24.669

> <U>
74.250

> <W>
-49.581

> <W(PB)>
-51.813

> <W(SA)>
2.232

> <Valence>
4.607

> <Coulomb>
69.758

> <VdW>
-0.115

> <VdW6>
-8.153

> <VdW12>
8.038

> <Bond>
0.239

> <Angle>
1.671

> <Pdih>
2.697

> <Idih>
0.000

> <Tether>
0.000

$$$$
VeraChem MOL file


 26 25  0  0  0  0  0  0  0  0999 V2000     
   19.4730   18.3937   26.0789 N   0  3  0  0  0  0  0  0  0  0  0  0
   19.4812   17.4179   25.7443 H   0  0  0  0  0  0  0  0  0  0  0  0
   18.6941   18.4368   26.7552 H   0  0  0  0  0  0  0  0  0  0  0  0
   19.1969   19.3431   24.9249 C   0  0  0  0  0  0  0  0  0  0  0  0
   19.2339   20.3642   25.3127 H   0  0  0  0  0  0  0  0  0  0  0  0
   18.1779   19.1478   24.5809 H   0  0  0  0  0  0  0  0  0  0  0  0
   20.1637   19.1998   23.7319 C   0  0  0  0  0  0  0  0  0  0  0  0
   21.1870   19.4264   24.0575 H   0  0  0  0  0  0  0  0  0  0  0  0
   20.1628   18.1583   23.3922 H   0  0  0  0  0  0  0  0  0  0  0  0
   19.7728   20.1510   22.5753 C   0  0  0  0  0  0  0  0  0  0  0  0
   19.8085   21.1816   22.9551 H   0  0  0  0  0  0  0  0  0  0  0  0
   18.7316   19.9764   22.2705 H   0  0  0  0  0  0  0  0  0  0  0  0
   20.7121   20.0489   21.3449 C   0  0  0  0  0  0  0  0  0  0  0  0
   20.8093   21.0511   20.9050 H   0  0  0  0  0  0  0  0  0  0  0  0
   21.7257   19.7658   21.6607 H   0  0  0  0  0  0  0  0  0  0  0  0
   20.2168   19.0962   20.2266 C   0  0  0  0  0  0  0  0  0  0  0  0
   20.9174   19.1571   19.3821 H   0  0  0  0  0  0  0  0  0  0  0  0
   19.2489   19.4490   19.8438 H   0  0  0  0  0  0  0  0  0  0  0  0
   20.0891   17.6186   20.6575 C   0  0  0  0  0  0  0  0  0  0  0  0
   21.0216   17.2545   21.1078 H   0  0  0  0  0  0  0  0  0  0  0  0
   19.8656   16.9844   19.7899 H   0  0  0  0  0  0  0  0  0  0  0  0
   19.2745   17.4828   21.3794 H   0  0  0  0  0  0  0  0  0  0  0  0
   20.7837   18.7387   26.7770 C   0  0  0  0  0  0  0  0  0  0  0  0
   20.7385   19.7693   27.1359 H   0  0  0  0  0  0  0  0  0  0  0  0
   20.9281   18.0605   27.6210 H   0  0  0  0  0  0  0  0  0  0  0  0
   21.6097   18.6275   26.0717 H   0  0  0  0  0  0  0  0  0  0  0  0
  1  2  1  0  0  0  0
  1  3  1  0  0  0  0
  1  4  1  0  0  0  0
  4  5  1  0  0  0  0
  4  6  1  0  0  0  0
  4  7  1  0  0  0  0
  7  8  1  0  0  0  0
  7  9  1  0  0  0  0
  7 10  1  0  0  0  0
 10 11  1  0  0  0  0
 10 12  1  0  0  0  0
 10 13  1  0  0  0  0
 13 14  1  0  0  0  0
 13 15  1  0  0  0  0
 13 16  1  0  0  0  0
 16 17  1  0  0  0  0
 16 18  1  0  0  0  0
 16 19  1  0  0  0  0
 19 20  1  0  0  0  0
 19 21  1  0  0  0  0
 19 22  1  0  0  0  0
  1 23  1  0  0  0  0
 23 24  1  0  0  0  0
 23 25  1  0  0  0  0
 23 26  1  0  0  0  0
M  END
> <VM2 Rank>
135

> <Conf_Id>
829

> <Probability>
0.02

> <Sum Probability>
99.65

> <Delta G>
3.662

> <G>
79.128

> <E>
46.455

> <-TS>
32.673

> <U+W>
24.993

> <U>
74.461

> <W>
-49.468

> <W(PB)>
-51.714

> <W(SA)>
2.246

> <Valence>
4.968

> <Coulomb>
68.965

> <VdW>
0.528

> <VdW6>
-7.526

> <VdW12>
8.054

> <Bond>
0.248

> <Angle>
1.260

> <Pdih>
3.461

> <Idih>
0.000

> <Tether>
0.000

$$$$
VeraChem MOL file


 26 25  0  0  0  0  0  0  0  0999 V2000     
   19.9088   18.6290   26.1903 N   0  3  0  0  0  0  0  0  0  0  0  0
   20.3201   18.8027   27.1212 H   0  0  0  0  0  0  0  0  0  0  0  0
   19.9532   17.6057   26.0667 H   0  0  0  0  0  0  0  0  0  0  0  0
   20.7448   19.3233   25.1280 C   0  0  0  0  0  0  0  0  0  0  0  0
   21.7886   19.0554   25.3106 H   0  0  0  0  0  0  0  0  0  0  0  0
   20.6418   20.4020   25.2702 H   0  0  0  0  0  0  0  0  0  0  0  0
   20.3775   18.9481   23.6780 C   0  0  0  0  0  0  0  0  0  0  0  0
   20.4356   17.8583   23.5574 H   0  0  0  0  0  0  0  0  0  0  0  0
   19.3416   19.2474   23.4799 H   0  0  0  0  0  0  0  0  0  0  0  0
   21.3185   19.6365   22.6635 C   0  0  0  0  0  0  0  0  0  0  0  0
   22.3601   19.4370   22.9514 H   0  0  0  0  0  0  0  0  0  0  0  0
   21.1880   20.7258   22.7263 H   0  0  0  0  0  0  0  0  0  0  0  0
   21.1245   19.1777   21.1947 C   0  0  0  0  0  0  0  0  0  0  0  0
   21.8743   19.7000   20.5844 H   0  0  0  0  0  0  0  0  0  0  0  0
   21.3589   18.1086   21.0985 H   0  0  0  0  0  0  0  0  0  0  0  0
   19.7247   19.4757   20.5976 C   0  0  0  0  0  0  0  0  0  0  0  0
   19.8442   19.7231   19.5334 H   0  0  0  0  0  0  0  0  0  0  0  0
   19.2908   20.3692   21.0677 H   0  0  0  0  0  0  0  0  0  0  0  0
   18.7447   18.2833   20.7011 C   0  0  0  0  0  0  0  0  0  0  0  0
   19.1389   17.4054   20.1729 H   0  0  0  0  0  0  0  0  0  0  0  0
   17.7795   18.5393   20.2452 H   0  0  0  0  0  0  0  0  0  0  0  0
   18.5537   17.9935   21.7400 H   0  0  0  0  0  0  0  0  0  0  0  0
   18.4645   19.1165   26.1639 C   0  0  0  0  0  0  0  0  0  0  0  0
   17.9068   18.6242   26.9638 H   0  0  0  0  0  0  0  0  0  0  0  0
   18.4481   20.1980   26.3148 H   0  0  0  0  0  0  0  0  0  0  0  0
   18.0167   18.8697   25.1992 H   0  0  0  0  0  0  0  0  0  0  0  0
  1  2  1  0  0  0  0
  1  3  1  0  0  0  0
  1  4  1  0  0  0  0
  4  5  1  0  0  0  0
  4  6  1  0  0  0  0
  4  7  1  0  0  0  0
  7  8  1  0  0  0  0
  7  9  1  0  0  0  0
  7 10  1  0  0  0  0
 10 11  1  0  0  0  0
 10 12  1  0  0  0  0
 10 13  1  0  0  0  0
 13 14  1  0  0  0  0
 13 15  1  0  0  0  0
 13 16  1  0  0  0  0
 16 17  1  0  0  0  0
 16 18  1  0  0  0  0
 16 19  1  0  0  0  0
 19 20  1  0  0  0  0
 19 21  1  0  0  0  0
 19 22  1  0  0  0  0
  1 23  1  0  0  0  0
 23 24  1  0  0  0  0
 23 25  1  0  0  0  0
 23 26  1  0  0  0  0
M  END
> <VM2 Rank>
136

> <Conf_Id>
766

> <Probability>
0.01

> <Sum Probability>
99.66

> <Delta G>
3.686

> <G>
79.152

> <E>
46.476

> <-TS>
32.675

> <U+W>
25.015

> <U>
74.458

> <W>
-49.443

> <W(PB)>
-51.690

> <W(SA)>
2.246

> <Valence>
4.984

> <Coulomb>
68.955

> <VdW>
0.519

> <VdW6>
-7.574

> <VdW12>
8.093

> <Bond>
0.248

> <Angle>
1.287

> <Pdih>
3.448

> <Idih>
0.000

> <Tether>
0.000

$$$$
VeraChem MOL file


 26 25  0  0  0  0  0  0  0  0999 V2000     
   20.5850   19.2766   25.4312 N   0  3  0  0  0  0  0  0  0  0  0  0
   21.1091   19.6007   24.6060 H   0  0  0  0  0  0  0  0  0  0  0  0
   21.1240   18.4806   25.8063 H   0  0  0  0  0  0  0  0  0  0  0  0
   19.1979   18.8192   25.0226 C   0  0  0  0  0  0  0  0  0  0  0  0
   18.6377   19.6877   24.6673 H   0  0  0  0  0  0  0  0  0  0  0  0
   18.7085   18.4460   25.9258 H   0  0  0  0  0  0  0  0  0  0  0  0
   19.1823   17.7118   23.9477 C   0  0  0  0  0  0  0  0  0  0  0  0
   19.9464   16.9562   24.1737 H   0  0  0  0  0  0  0  0  0  0  0  0
   18.2168   17.1931   24.0163 H   0  0  0  0  0  0  0  0  0  0  0  0
   19.3430   18.2269   22.4944 C   0  0  0  0  0  0  0  0  0  0  0  0
   18.5312   18.9325   22.2724 H   0  0  0  0  0  0  0  0  0  0  0  0
   19.2059   17.3763   21.8124 H   0  0  0  0  0  0  0  0  0  0  0  0
   20.7109   18.8915   22.1986 C   0  0  0  0  0  0  0  0  0  0  0  0
   20.7851   19.8492   22.7289 H   0  0  0  0  0  0  0  0  0  0  0  0
   21.5165   18.2490   22.5801 H   0  0  0  0  0  0  0  0  0  0  0  0
   20.9551   19.1403   20.6905 C   0  0  0  0  0  0  0  0  0  0  0  0
   20.9169   18.1869   20.1450 H   0  0  0  0  0  0  0  0  0  0  0  0
   21.9742   19.5294   20.5566 H   0  0  0  0  0  0  0  0  0  0  0  0
   19.9535   20.1374   20.0644 C   0  0  0  0  0  0  0  0  0  0  0  0
   18.9309   19.7403   20.0732 H   0  0  0  0  0  0  0  0  0  0  0  0
   20.2185   20.3430   19.0192 H   0  0  0  0  0  0  0  0  0  0  0  0
   19.9565   21.0926   20.6052 H   0  0  0  0  0  0  0  0  0  0  0  0
   20.4803   20.3864   26.4677 C   0  0  0  0  0  0  0  0  0  0  0  0
   19.9495   20.0095   27.3447 H   0  0  0  0  0  0  0  0  0  0  0  0
   21.4850   20.7056   26.7538 H   0  0  0  0  0  0  0  0  0  0  0  0
   19.9338   21.2288   26.0381 H   0  0  0  0  0  0  0  0  0  0  0  0
  1  2  1  0  0  0  0
  1  3  1  0  0  0  0
  1  4  1  0  0  0  0
  4  5  1  0  0  0  0
  4  6  1  0  0  0  0
  4  7  1  0  0  0  0
  7  8  1  0  0  0  0
  7  9  1  0  0  0  0
  7 10  1  0  0  0  0
 10 11  1  0  0  0  0
 10 12  1  0  0  0  0
 10 13  1  0  0  0  0
 13 14  1  0  0  0  0
 13 15  1  0  0  0  0
 13 16  1  0  0  0  0
 16 17  1  0  0  0  0
 16 18  1  0  0  0  0
 16 19  1  0  0  0  0
 19 20  1  0  0  0  0
 19 21  1  0  0  0  0
 19 22  1  0  0  0  0
  1 23  1  0  0  0  0
 23 24  1  0  0  0  0
 23 25  1  0  0  0  0
 23 26  1  0  0  0  0
M  END
> <VM2 Rank>
137

> <Conf_Id>
533

> <Probability>
0.01

> <Sum Probability>
99.68

> <Delta G>
3.703

> <G>
79.169

> <E>
46.697

> <-TS>
32.471

> <U+W>
25.235

> <U>
74.475

> <W>
-49.239

> <W(PB)>
-51.483

> <W(SA)>
2.244

> <Valence>
3.793

> <Coulomb>
70.589

> <VdW>
0.093

> <VdW6>
-7.603

> <VdW12>
7.696

> <Bond>
0.211

> <Angle>
1.117

> <Pdih>
2.464

> <Idih>
0.000

> <Tether>
0.000

$$$$
VeraChem MOL file


 26 25  0  0  0  0  0  0  0  0999 V2000     
   19.3384   19.1479   25.3871 N   0  3  0  0  0  0  0  0  0  0  0  0
   18.9482   18.2562   25.7296 H   0  0  0  0  0  0  0  0  0  0  0  0
   18.8182   19.3641   24.5250 H   0  0  0  0  0  0  0  0  0  0  0  0
   20.8147   18.9859   25.0798 C   0  0  0  0  0  0  0  0  0  0  0  0
   21.3055   18.7138   26.0177 H   0  0  0  0  0  0  0  0  0  0  0  0
   21.2095   19.9529   24.7583 H   0  0  0  0  0  0  0  0  0  0  0  0
   21.1308   17.9127   24.0167 C   0  0  0  0  0  0  0  0  0  0  0  0
   22.1745   17.6012   24.1564 H   0  0  0  0  0  0  0  0  0  0  0  0
   20.5229   17.0157   24.1941 H   0  0  0  0  0  0  0  0  0  0  0  0
   20.9706   18.3947   22.5520 C   0  0  0  0  0  0  0  0  0  0  0  0
   21.3254   17.5948   21.8874 H   0  0  0  0  0  0  0  0  0  0  0  0
   21.6352   19.2525   22.3822 H   0  0  0  0  0  0  0  0  0  0  0  0
   19.5201   18.7689   22.1565 C   0  0  0  0  0  0  0  0  0  0  0  0
   18.8376   17.9732   22.4855 H   0  0  0  0  0  0  0  0  0  0  0  0
   19.2156   19.6877   22.6734 H   0  0  0  0  0  0  0  0  0  0  0  0
   19.3363   18.9735   20.6333 C   0  0  0  0  0  0  0  0  0  0  0  0
   18.2713   19.1481   20.4257 H   0  0  0  0  0  0  0  0  0  0  0  0
   19.6057   18.0517   20.0988 H   0  0  0  0  0  0  0  0  0  0  0  0
   20.1553   20.1579   20.0713 C   0  0  0  0  0  0  0  0  0  0  0  0
   21.2342   19.9771   20.1545 H   0  0  0  0  0  0  0  0  0  0  0  0
   19.9203   21.0887   20.6036 H   0  0  0  0  0  0  0  0  0  0  0  0
   19.9276   20.3127   19.0087 H   0  0  0  0  0  0  0  0  0  0  0  0
   19.1418   20.2484   26.4203 C   0  0  0  0  0  0  0  0  0  0  0  0
   19.5338   21.1876   26.0237 H   0  0  0  0  0  0  0  0  0  0  0  0
   18.0757   20.3540   26.6331 H   0  0  0  0  0  0  0  0  0  0  0  0
   19.6758   19.9815   27.3349 H   0  0  0  0  0  0  0  0  0  0  0  0
  1  2  1  0  0  0  0
  1  3  1  0  0  0  0
  1  4  1  0  0  0  0
  4  5  1  0  0  0  0
  4  6  1  0  0  0  0
  4  7  1  0  0  0  0
  7  8  1  0  0  0  0
  7  9  1  0  0  0  0
  7 10  1  0  0  0  0
 10 11  1  0  0  0  0
 10 12  1  0  0  0  0
 10 13  1  0  0  0  0
 13 14  1  0  0  0  0
 13 15  1  0  0  0  0
 13 16  1  0  0  0  0
 16 17  1  0  0  0  0
 16 18  1  0  0  0  0
 16 19  1  0  0  0  0
 19 20  1  0  0  0  0
 19 21  1  0  0  0  0
 19 22  1  0  0  0  0
  1 23  1  0  0  0  0
 23 24  1  0  0  0  0
 23 25  1  0  0  0  0
 23 26  1  0  0  0  0
M  END
> <VM2 Rank>
138

> <Conf_Id>
252

> <Probability>
0.01

> <Sum Probability>
99.69

> <Delta G>
3.724

> <G>
79.190

> <E>
46.718

> <-TS>
32.472

> <U+W>
25.256

> <U>
74.475

> <W>
-49.218

> <W(PB)>
-51.461

> <W(SA)>
2.244

> <Valence>
3.793

> <Coulomb>
70.589

> <VdW>
0.093

> <VdW6>
-7.603

> <VdW12>
7.696

> <Bond>
0.211

> <Angle>
1.117

> <Pdih>
2.465

> <Idih>
0.000

> <Tether>
0.000

$$$$
VeraChem MOL file


 26 25  0  0  0  0  0  0  0  0999 V2000     
   19.5424   19.8265   25.4874 N   0  3  0  0  0  0  0  0  0  0  0  0
   18.8954   20.2199   26.1892 H   0  0  0  0  0  0  0  0  0  0  0  0
   19.3782   20.3778   24.6327 H   0  0  0  0  0  0  0  0  0  0  0  0
   19.1954   18.3687   25.2381 C   0  0  0  0  0  0  0  0  0  0  0  0
   18.1226   18.3197   25.0354 H   0  0  0  0  0  0  0  0  0  0  0  0
   19.3823   17.8287   26.1698 H   0  0  0  0  0  0  0  0  0  0  0  0
   19.9541   17.6692   24.0856 C   0  0  0  0  0  0  0  0  0  0  0  0
   21.0358   17.6777   24.2718 H   0  0  0  0  0  0  0  0  0  0  0  0
   19.6594   16.6116   24.1034 H   0  0  0  0  0  0  0  0  0  0  0  0
   19.6386   18.2310   22.6751 C   0  0  0  0  0  0  0  0  0  0  0  0
   18.5748   18.4977   22.6087 H   0  0  0  0  0  0  0  0  0  0  0  0
   19.7963   17.4221   21.9500 H   0  0  0  0  0  0  0  0  0  0  0  0
   20.5240   19.4374   22.2682 C   0  0  0  0  0  0  0  0  0  0  0  0
   20.4361   20.2378   23.0105 H   0  0  0  0  0  0  0  0  0  0  0  0
   21.5803   19.1353   22.2691 H   0  0  0  0  0  0  0  0  0  0  0  0
   20.1603   20.0278   20.8840 C   0  0  0  0  0  0  0  0  0  0  0  0
   20.7568   20.9365   20.7213 H   0  0  0  0  0  0  0  0  0  0  0  0
   19.1086   20.3468   20.8803 H   0  0  0  0  0  0  0  0  0  0  0  0
   20.4118   19.0529   19.7110 C   0  0  0  0  0  0  0  0  0  0  0  0
   19.7448   18.1833   19.7582 H   0  0  0  0  0  0  0  0  0  0  0  0
   21.4487   18.6925   19.7120 H   0  0  0  0  0  0  0  0  0  0  0  0
   20.2319   19.5533   18.7507 H   0  0  0  0  0  0  0  0  0  0  0  0
   20.9814   19.9764   25.9675 C   0  0  0  0  0  0  0  0  0  0  0  0
   21.1156   19.3977   26.8839 H   0  0  0  0  0  0  0  0  0  0  0  0
   21.6597   19.6093   25.1946 H   0  0  0  0  0  0  0  0  0  0  0  0
   21.1847   21.0314   26.1643 H   0  0  0  0  0  0  0  0  0  0  0  0
  1  2  1  0  0  0  0
  1  3  1  0  0  0  0
  1  4  1  0  0  0  0
  4  5  1  0  0  0  0
  4  6  1  0  0  0  0
  4  7  1  0  0  0  0
  7  8  1  0  0  0  0
  7  9  1  0  0  0  0
  7 10  1  0  0  0  0
 10 11  1  0  0  0  0
 10 12  1  0  0  0  0
 10 13  1  0  0  0  0
 13 14  1  0  0  0  0
 13 15  1  0  0  0  0
 13 16  1  0  0  0  0
 16 17  1  0  0  0  0
 16 18  1  0  0  0  0
 16 19  1  0  0  0  0
 19 20  1  0  0  0  0
 19 21  1  0  0  0  0
 19 22  1  0  0  0  0
  1 23  1  0  0  0  0
 23 24  1  0  0  0  0
 23 25  1  0  0  0  0
 23 26  1  0  0  0  0
M  END
> <VM2 Rank>
139

> <Conf_Id>
538

> <Probability>
0.01

> <Sum Probability>
99.70

> <Delta G>
3.727

> <G>
79.193

> <E>
46.516

> <-TS>
32.676

> <U+W>
25.055

> <U>
75.034

> <W>
-49.979

> <W(PB)>
-52.180

> <W(SA)>
2.201

> <Valence>
4.542

> <Coulomb>
70.171

> <VdW>
0.321

> <VdW6>
-8.485

> <VdW12>
8.806

> <Bond>
0.270

> <Angle>
1.463

> <Pdih>
2.809

> <Idih>
0.000

> <Tether>
0.000

$$$$
VeraChem MOL file


 26 25  0  0  0  0  0  0  0  0999 V2000     
   19.7290   18.9034   25.9326 N   0  3  0  0  0  0  0  0  0  0  0  0
   20.4443   18.2193   26.2219 H   0  0  0  0  0  0  0  0  0  0  0  0
   19.0158   18.8716   26.6780 H   0  0  0  0  0  0  0  0  0  0  0  0
   19.0945   18.4790   24.6168 C   0  0  0  0  0  0  0  0  0  0  0  0
   18.6221   19.3522   24.1608 H   0  0  0  0  0  0  0  0  0  0  0  0
   18.3028   17.7698   24.8715 H   0  0  0  0  0  0  0  0  0  0  0  0
   20.0431   17.7853   23.6118 C   0  0  0  0  0  0  0  0  0  0  0  0
   20.5462   16.9482   24.1131 H   0  0  0  0  0  0  0  0  0  0  0  0
   19.4337   17.3307   22.8205 H   0  0  0  0  0  0  0  0  0  0  0  0
   21.1081   18.7060   22.9619 C   0  0  0  0  0  0  0  0  0  0  0  0
   21.6983   18.1153   22.2489 H   0  0  0  0  0  0  0  0  0  0  0  0
   21.8255   19.0280   23.7271 H   0  0  0  0  0  0  0  0  0  0  0  0
   20.5357   19.9570   22.2414 C   0  0  0  0  0  0  0  0  0  0  0  0
   20.0690   20.6235   22.9780 H   0  0  0  0  0  0  0  0  0  0  0  0
   21.3710   20.5283   21.8138 H   0  0  0  0  0  0  0  0  0  0  0  0
   19.5082   19.6585   21.1200 C   0  0  0  0  0  0  0  0  0  0  0  0
   19.1631   20.6131   20.6988 H   0  0  0  0  0  0  0  0  0  0  0  0
   18.6160   19.1761   21.5410 H   0  0  0  0  0  0  0  0  0  0  0  0
   20.0812   18.7896   19.9774 C   0  0  0  0  0  0  0  0  0  0  0  0
   20.3375   17.7820   20.3273 H   0  0  0  0  0  0  0  0  0  0  0  0
   20.9837   19.2452   19.5499 H   0  0  0  0  0  0  0  0  0  0  0  0
   19.3452   18.6817   19.1702 H   0  0  0  0  0  0  0  0  0  0  0  0
   20.3081   20.3112   25.8552 C   0  0  0  0  0  0  0  0  0  0  0  0
   21.1031   20.3413   25.1096 H   0  0  0  0  0  0  0  0  0  0  0  0
   19.5151   21.0092   25.5786 H   0  0  0  0  0  0  0  0  0  0  0  0
   20.7128   20.5837   26.8325 H   0  0  0  0  0  0  0  0  0  0  0  0
  1  2  1  0  0  0  0
  1  3  1  0  0  0  0
  1  4  1  0  0  0  0
  4  5  1  0  0  0  0
  4  6  1  0  0  0  0
  4  7  1  0  0  0  0
  7  8  1  0  0  0  0
  7  9  1  0  0  0  0
  7 10  1  0  0  0  0
 10 11  1  0  0  0  0
 10 12  1  0  0  0  0
 10 13  1  0  0  0  0
 13 14  1  0  0  0  0
 13 15  1  0  0  0  0
 13 16  1  0  0  0  0
 16 17  1  0  0  0  0
 16 18  1  0  0  0  0
 16 19  1  0  0  0  0
 19 20  1  0  0  0  0
 19 21  1  0  0  0  0
 19 22  1  0  0  0  0
  1 23  1  0  0  0  0
 23 24  1  0  0  0  0
 23 25  1  0  0  0  0
 23 26  1  0  0  0  0
M  END
> <VM2 Rank>
140

> <Conf_Id>
540

> <Probability>
0.01

> <Sum Probability>
99.72

> <Delta G>
3.752

> <G>
79.218

> <E>
45.807

> <-TS>
33.411

> <U+W>
24.345

> <U>
74.535

> <W>
-50.189

> <W(PB)>
-52.348

> <W(SA)>
2.159

> <Valence>
4.949

> <Coulomb>
69.619

> <VdW>
-0.033

> <VdW6>
-9.810

> <VdW12>
9.777

> <Bond>
0.300

> <Angle>
1.880

> <Pdih>
2.768

> <Idih>
0.000

> <Tether>
0.000

$$$$
VeraChem MOL file


 26 25  0  0  0  0  0  0  0  0999 V2000     
   20.7155   18.9872   25.8418 N   0  3  0  0  0  0  0  0  0  0  0  0
   21.7082   18.9818   26.1250 H   0  0  0  0  0  0  0  0  0  0  0  0
   20.2673   18.2660   26.4277 H   0  0  0  0  0  0  0  0  0  0  0  0
   20.6027   18.6164   24.3730 C   0  0  0  0  0  0  0  0  0  0  0  0
   21.2086   17.7202   24.2171 H   0  0  0  0  0  0  0  0  0  0  0  0
   21.0457   19.4267   23.7922 H   0  0  0  0  0  0  0  0  0  0  0  0
   19.1623   18.3333   23.8943 C   0  0  0  0  0  0  0  0  0  0  0  0
   18.7492   17.5300   24.5186 H   0  0  0  0  0  0  0  0  0  0  0  0
   18.5216   19.2098   24.0548 H   0  0  0  0  0  0  0  0  0  0  0  0
   19.0876   17.8923   22.4104 C   0  0  0  0  0  0  0  0  0  0  0  0
   18.1859   17.2765   22.2871 H   0  0  0  0  0  0  0  0  0  0  0  0
   19.9282   17.2289   22.1670 H   0  0  0  0  0  0  0  0  0  0  0  0
   18.9939   19.0572   21.3875 C   0  0  0  0  0  0  0  0  0  0  0  0
   18.8448   18.6298   20.3864 H   0  0  0  0  0  0  0  0  0  0  0  0
   18.0876   19.6417   21.5976 H   0  0  0  0  0  0  0  0  0  0  0  0
   20.2048   20.0217   21.3353 C   0  0  0  0  0  0  0  0  0  0  0  0
   20.3081   20.5551   22.2887 H   0  0  0  0  0  0  0  0  0  0  0  0
   19.9976   20.7977   20.5853 H   0  0  0  0  0  0  0  0  0  0  0  0
   21.5326   19.3223   20.9641 C   0  0  0  0  0  0  0  0  0  0  0  0
   21.4457   18.7999   20.0026 H   0  0  0  0  0  0  0  0  0  0  0  0
   21.8339   18.5906   21.7231 H   0  0  0  0  0  0  0  0  0  0  0  0
   22.3424   20.0578   20.8734 H   0  0  0  0  0  0  0  0  0  0  0  0
   20.1085   20.3596   26.1106 C   0  0  0  0  0  0  0  0  0  0  0  0
   20.2396   20.6073   27.1663 H   0  0  0  0  0  0  0  0  0  0  0  0
   20.6152   21.1034   25.4918 H   0  0  0  0  0  0  0  0  0  0  0  0
   19.0442   20.3385   25.8683 H   0  0  0  0  0  0  0  0  0  0  0  0
  1  2  1  0  0  0  0
  1  3  1  0  0  0  0
  1  4  1  0  0  0  0
  4  5  1  0  0  0  0
  4  6  1  0  0  0  0
  4  7  1  0  0  0  0
  7  8  1  0  0  0  0
  7  9  1  0  0  0  0
  7 10  1  0  0  0  0
 10 11  1  0  0  0  0
 10 12  1  0  0  0  0
 10 13  1  0  0  0  0
 13 14  1  0  0  0  0
 13 15  1  0  0  0  0
 13 16  1  0  0  0  0
 16 17  1  0  0  0  0
 16 18  1  0  0  0  0
 16 19  1  0  0  0  0
 19 20  1  0  0  0  0
 19 21  1  0  0  0  0
 19 22  1  0  0  0  0
  1 23  1  0  0  0  0
 23 24  1  0  0  0  0
 23 25  1  0  0  0  0
 23 26  1  0  0  0  0
M  END
> <VM2 Rank>
141

> <Conf_Id>
1105

> <Probability>
0.01

> <Sum Probability>
99.73

> <Delta G>
3.754

> <G>
79.220

> <E>
46.085

> <-TS>
33.135

> <U+W>
24.623

> <U>
74.631

> <W>
-50.008

> <W(PB)>
-52.190

> <W(SA)>
2.182

> <Valence>
4.880

> <Coulomb>
69.648

> <VdW>
0.103

> <VdW6>
-8.910

> <VdW12>
9.013

> <Bond>
0.274

> <Angle>
1.756

> <Pdih>
2.850

> <Idih>
0.000

> <Tether>
0.000

$$$$
VeraChem MOL file


 26 25  0  0  0  0  0  0  0  0999 V2000     
   20.2405   19.8984   25.5122 N   0  3  0  0  0  0  0  0  0  0  0  0
   20.3484   20.4779   24.6672 H   0  0  0  0  0  0  0  0  0  0  0  0
   20.7430   20.4102   26.2548 H   0  0  0  0  0  0  0  0  0  0  0  0
   20.8937   18.5437   25.2983 C   0  0  0  0  0  0  0  0  0  0  0  0
   20.7560   17.9703   26.2184 H   0  0  0  0  0  0  0  0  0  0  0  0
   21.9656   18.7158   25.1716 H   0  0  0  0  0  0  0  0  0  0  0  0
   20.3760   17.7127   24.1005 C   0  0  0  0  0  0  0  0  0  0  0  0
   20.8780   16.7372   24.1466 H   0  0  0  0  0  0  0  0  0  0  0  0
   19.3050   17.4994   24.2104 H   0  0  0  0  0  0  0  0  0  0  0  0
   20.6685   18.3372   22.7116 C   0  0  0  0  0  0  0  0  0  0  0  0
   20.7298   17.5183   21.9830 H   0  0  0  0  0  0  0  0  0  0  0  0
   21.6578   18.8152   22.7178 H   0  0  0  0  0  0  0  0  0  0  0  0
   19.5869   19.3411   22.2351 C   0  0  0  0  0  0  0  0  0  0  0  0
   18.6166   18.8305   22.1646 H   0  0  0  0  0  0  0  0  0  0  0  0
   19.4582   20.1374   22.9759 H   0  0  0  0  0  0  0  0  0  0  0  0
   19.9185   20.0028   20.8753 C   0  0  0  0  0  0  0  0  0  0  0  0
   20.8811   20.5290   20.9425 H   0  0  0  0  0  0  0  0  0  0  0  0
   19.1626   20.7724   20.6649 H   0  0  0  0  0  0  0  0  0  0  0  0
   19.9528   19.0054   19.6948 C   0  0  0  0  0  0  0  0  0  0  0  0
   19.0134   18.4418   19.6261 H   0  0  0  0  0  0  0  0  0  0  0  0
   20.7777   18.2893   19.7947 H   0  0  0  0  0  0  0  0  0  0  0  0
   20.0937   19.5387   18.7458 H   0  0  0  0  0  0  0  0  0  0  0  0
   18.7710   19.7485   25.8891 C   0  0  0  0  0  0  0  0  0  0  0  0
   18.2376   19.2566   25.0733 H   0  0  0  0  0  0  0  0  0  0  0  0
   18.6937   19.1479   26.7980 H   0  0  0  0  0  0  0  0  0  0  0  0
   18.3439   20.7385   26.0638 H   0  0  0  0  0  0  0  0  0  0  0  0
  1  2  1  0  0  0  0
  1  3  1  0  0  0  0
  1  4  1  0  0  0  0
  4  5  1  0  0  0  0
  4  6  1  0  0  0  0
  4  7  1  0  0  0  0
  7  8  1  0  0  0  0
  7  9  1  0  0  0  0
  7 10  1  0  0  0  0
 10 11  1  0  0  0  0
 10 12  1  0  0  0  0
 10 13  1  0  0  0  0
 13 14  1  0  0  0  0
 13 15  1  0  0  0  0
 13 16  1  0  0  0  0
 16 17  1  0  0  0  0
 16 18  1  0  0  0  0
 16 19  1  0  0  0  0
 19 20  1  0  0  0  0
 19 21  1  0  0  0  0
 19 22  1  0  0  0  0
  1 23  1  0  0  0  0
 23 24  1  0  0  0  0
 23 25  1  0  0  0  0
 23 26  1  0  0  0  0
M  END
> <VM2 Rank>
142

> <Conf_Id>
746

> <Probability>
0.01

> <Sum Probability>
99.74

> <Delta G>
3.765

> <G>
79.231

> <E>
46.555

> <-TS>
32.676

> <U+W>
25.093

> <U>
75.034

> <W>
-49.940

> <W(PB)>
-52.155

> <W(SA)>
2.215

> <Valence>
4.541

> <Coulomb>
70.171

> <VdW>
0.321

> <VdW6>
-8.485

> <VdW12>
8.806

> <Bond>
0.270

> <Angle>
1.463

> <Pdih>
2.808

> <Idih>
0.000

> <Tether>
0.000

$$$$
VeraChem MOL file


 26 25  0  0  0  0  0  0  0  0999 V2000     
   19.2408   18.8358   25.7896 N   0  3  0  0  0  0  0  0  0  0  0  0
   19.7839   18.2163   26.4106 H   0  0  0  0  0  0  0  0  0  0  0  0
   18.2525   18.6270   26.0026 H   0  0  0  0  0  0  0  0  0  0  0  0
   19.5291   18.5062   24.3349 C   0  0  0  0  0  0  0  0  0  0  0  0
   18.9727   19.2140   23.7188 H   0  0  0  0  0  0  0  0  0  0  0  0
   19.1301   17.5069   24.1434 H   0  0  0  0  0  0  0  0  0  0  0  0
   21.0269   18.5248   23.9604 C   0  0  0  0  0  0  0  0  0  0  0  0
   21.4636   19.5119   24.1590 H   0  0  0  0  0  0  0  0  0  0  0  0
   21.5496   17.8176   24.6178 H   0  0  0  0  0  0  0  0  0  0  0  0
   21.2933   18.1188   22.4885 C   0  0  0  0  0  0  0  0  0  0  0  0
   20.6240   17.3004   22.1916 H   0  0  0  0  0  0  0  0  0  0  0  0
   22.3075   17.6997   22.4331 H   0  0  0  0  0  0  0  0  0  0  0  0
   21.2200   19.2858   21.4664 C   0  0  0  0  0  0  0  0  0  0  0  0
   21.9718   20.0406   21.7352 H   0  0  0  0  0  0  0  0  0  0  0  0
   21.5225   18.9047   20.4812 H   0  0  0  0  0  0  0  0  0  0  0  0
   19.8452   19.9847   21.3225 C   0  0  0  0  0  0  0  0  0  0  0  0
   19.9426   20.7920   20.5832 H   0  0  0  0  0  0  0  0  0  0  0  0
   19.5692   20.4792   22.2624 H   0  0  0  0  0  0  0  0  0  0  0  0
   18.7163   19.0330   20.8642 C   0  0  0  0  0  0  0  0  0  0  0  0
   18.9746   18.5461   19.9150 H   0  0  0  0  0  0  0  0  0  0  0  0
   17.7825   19.5895   20.7118 H   0  0  0  0  0  0  0  0  0  0  0  0
   18.5175   18.2500   21.6055 H   0  0  0  0  0  0  0  0  0  0  0  0
   19.5364   20.3008   26.0905 C   0  0  0  0  0  0  0  0  0  0  0  0
   18.9340   20.9308   25.4325 H   0  0  0  0  0  0  0  0  0  0  0  0
   19.2842   20.5091   27.1326 H   0  0  0  0  0  0  0  0  0  0  0  0
   20.5972   20.4978   25.9235 H   0  0  0  0  0  0  0  0  0  0  0  0
  1  2  1  0  0  0  0
  1  3  1  0  0  0  0
  1  4  1  0  0  0  0
  4  5  1  0  0  0  0
  4  6  1  0  0  0  0
  4  7  1  0  0  0  0
  7  8  1  0  0  0  0
  7  9  1  0  0  0  0
  7 10  1  0  0  0  0
 10 11  1  0  0  0  0
 10 12  1  0  0  0  0
 10 13  1  0  0  0  0
 13 14  1  0  0  0  0
 13 15  1  0  0  0  0
 13 16  1  0  0  0  0
 16 17  1  0  0  0  0
 16 18  1  0  0  0  0
 16 19  1  0  0  0  0
 19 20  1  0  0  0  0
 19 21  1  0  0  0  0
 19 22  1  0  0  0  0
  1 23  1  0  0  0  0
 23 24  1  0  0  0  0
 23 25  1  0  0  0  0
 23 26  1  0  0  0  0
M  END
> <VM2 Rank>
143

> <Conf_Id>
576

> <Probability>
0.01

> <Sum Probability>
99.76

> <Delta G>
3.788

> <G>
79.254

> <E>
46.119

> <-TS>
33.135

> <U+W>
24.657

> <U>
74.631

> <W>
-49.973

> <W(PB)>
-52.194

> <W(SA)>
2.220

> <Valence>
4.880

> <Coulomb>
69.648

> <VdW>
0.103

> <VdW6>
-8.910

> <VdW12>
9.013

> <Bond>
0.274

> <Angle>
1.756

> <Pdih>
2.850

> <Idih>
0.000

> <Tether>
0.000

$$$$
VeraChem MOL file


 26 25  0  0  0  0  0  0  0  0999 V2000     
   20.2857   19.1288   25.9331 N   0  3  0  0  0  0  0  0  0  0  0  0
   20.9712   19.8209   25.5950 H   0  0  0  0  0  0  0  0  0  0  0  0
   20.8277   18.2708   26.1194 H   0  0  0  0  0  0  0  0  0  0  0  0
   19.2419   18.8650   24.8650 C   0  0  0  0  0  0  0  0  0  0  0  0
   18.6973   19.7959   24.6884 H   0  0  0  0  0  0  0  0  0  0  0  0
   18.5396   18.1296   25.2656 H   0  0  0  0  0  0  0  0  0  0  0  0
   19.8231   18.3444   23.5356 C   0  0  0  0  0  0  0  0  0  0  0  0
   20.3743   17.4125   23.7188 H   0  0  0  0  0  0  0  0  0  0  0  0
   18.9879   18.0820   22.8767 H   0  0  0  0  0  0  0  0  0  0  0  0
   20.7490   19.3772   22.8434 C   0  0  0  0  0  0  0  0  0  0  0  0
   21.6168   19.5582   23.4916 H   0  0  0  0  0  0  0  0  0  0  0  0
   20.2364   20.3440   22.7434 H   0  0  0  0  0  0  0  0  0  0  0  0
   21.2697   18.9066   21.4600 C   0  0  0  0  0  0  0  0  0  0  0  0
   22.2978   19.2747   21.3378 H   0  0  0  0  0  0  0  0  0  0  0  0
   21.3434   17.8107   21.4323 H   0  0  0  0  0  0  0  0  0  0  0  0
   20.4460   19.4165   20.2496 C   0  0  0  0  0  0  0  0  0  0  0  0
   20.9425   19.0864   19.3263 H   0  0  0  0  0  0  0  0  0  0  0  0
   20.4646   20.5151   20.2279 H   0  0  0  0  0  0  0  0  0  0  0  0
   18.9807   18.9287   20.2248 C   0  0  0  0  0  0  0  0  0  0  0  0
   18.3997   19.3690   21.0445 H   0  0  0  0  0  0  0  0  0  0  0  0
   18.9254   17.8353   20.3035 H   0  0  0  0  0  0  0  0  0  0  0  0
   18.4950   19.2221   19.2852 H   0  0  0  0  0  0  0  0  0  0  0  0
   19.6119   19.6229   27.2056 C   0  0  0  0  0  0  0  0  0  0  0  0
   19.0718   20.5475   26.9903 H   0  0  0  0  0  0  0  0  0  0  0  0
   18.9147   18.8612   27.5616 H   0  0  0  0  0  0  0  0  0  0  0  0
   20.3741   19.8092   27.9655 H   0  0  0  0  0  0  0  0  0  0  0  0
  1  2  1  0  0  0  0
  1  3  1  0  0  0  0
  1  4  1  0  0  0  0
  4  5  1  0  0  0  0
  4  6  1  0  0  0  0
  4  7  1  0  0  0  0
  7  8  1  0  0  0  0
  7  9  1  0  0  0  0
  7 10  1  0  0  0  0
 10 11  1  0  0  0  0
 10 12  1  0  0  0  0
 10 13  1  0  0  0  0
 13 14  1  0  0  0  0
 13 15  1  0  0  0  0
 13 16  1  0  0  0  0
 16 17  1  0  0  0  0
 16 18  1  0  0  0  0
 16 19  1  0  0  0  0
 19 20  1  0  0  0  0
 19 21  1  0  0  0  0
 19 22  1  0  0  0  0
  1 23  1  0  0  0  0
 23 24  1  0  0  0  0
 23 25  1  0  0  0  0
 23 26  1  0  0  0  0
M  END
> <VM2 Rank>
144

> <Conf_Id>
711

> <Probability>
0.01

> <Sum Probability>
99.77

> <Delta G>
3.795

> <G>
79.261

> <E>
46.643

> <-TS>
32.618

> <U+W>
25.181

> <U>
74.516

> <W>
-49.336

> <W(PB)>
-51.569

> <W(SA)>
2.234

> <Valence>
4.842

> <Coulomb>
69.332

> <VdW>
0.342

> <VdW6>
-7.369

> <VdW12>
7.710

> <Bond>
0.232

> <Angle>
1.153

> <Pdih>
3.457

> <Idih>
0.000

> <Tether>
0.000

$$$$
VeraChem MOL file


 26 25  0  0  0  0  0  0  0  0999 V2000     
   20.6316   18.9884   25.4942 N   0  3  0  0  0  0  0  0  0  0  0  0
   21.2135   19.2965   24.7023 H   0  0  0  0  0  0  0  0  0  0  0  0
   20.9512   18.0326   25.7161 H   0  0  0  0  0  0  0  0  0  0  0  0
   19.1689   18.9675   25.0929 C   0  0  0  0  0  0  0  0  0  0  0  0
   18.8446   19.9948   24.9085 H   0  0  0  0  0  0  0  0  0  0  0  0
   18.6111   18.5844   25.9512 H   0  0  0  0  0  0  0  0  0  0  0  0
   18.8597   18.0918   23.8603 C   0  0  0  0  0  0  0  0  0  0  0  0
   19.4403   17.1608   23.9044 H   0  0  0  0  0  0  0  0  0  0  0  0
   17.8052   17.7914   23.9201 H   0  0  0  0  0  0  0  0  0  0  0  0
   19.0748   18.7989   22.4973 C   0  0  0  0  0  0  0  0  0  0  0  0
   18.4263   19.6840   22.4396 H   0  0  0  0  0  0  0  0  0  0  0  0
   18.7305   18.1159   21.7105 H   0  0  0  0  0  0  0  0  0  0  0  0
   20.5405   19.2159   22.2156 C   0  0  0  0  0  0  0  0  0  0  0  0
   20.8485   19.9718   22.9483 H   0  0  0  0  0  0  0  0  0  0  0  0
   21.2076   18.3526   22.3457 H   0  0  0  0  0  0  0  0  0  0  0  0
   20.7491   19.8200   20.8053 C   0  0  0  0  0  0  0  0  0  0  0  0
   21.7686   20.2260   20.7448 H   0  0  0  0  0  0  0  0  0  0  0  0
   20.0709   20.6727   20.6609 H   0  0  0  0  0  0  0  0  0  0  0  0
   20.5560   18.7996   19.6600 C   0  0  0  0  0  0  0  0  0  0  0  0
   19.5163   18.4571   19.5924 H   0  0  0  0  0  0  0  0  0  0  0  0
   21.1995   17.9214   19.8004 H   0  0  0  0  0  0  0  0  0  0  0  0
   20.8152   19.2533   18.6946 H   0  0  0  0  0  0  0  0  0  0  0  0
   20.8274   19.9079   26.6914 C   0  0  0  0  0  0  0  0  0  0  0  0
   21.8833   19.9125   26.9709 H   0  0  0  0  0  0  0  0  0  0  0  0
   20.5122   20.9187   26.4233 H   0  0  0  0  0  0  0  0  0  0  0  0
   20.2264   19.5422   27.5269 H   0  0  0  0  0  0  0  0  0  0  0  0
  1  2  1  0  0  0  0
  1  3  1  0  0  0  0
  1  4  1  0  0  0  0
  4  5  1  0  0  0  0
  4  6  1  0  0  0  0
  4  7  1  0  0  0  0
  7  8  1  0  0  0  0
  7  9  1  0  0  0  0
  7 10  1  0  0  0  0
 10 11  1  0  0  0  0
 10 12  1  0  0  0  0
 10 13  1  0  0  0  0
 13 14  1  0  0  0  0
 13 15  1  0  0  0  0
 13 16  1  0  0  0  0
 16 17  1  0  0  0  0
 16 18  1  0  0  0  0
 16 19  1  0  0  0  0
 19 20  1  0  0  0  0
 19 21  1  0  0  0  0
 19 22  1  0  0  0  0
  1 23  1  0  0  0  0
 23 24  1  0  0  0  0
 23 25  1  0  0  0  0
 23 26  1  0  0  0  0
M  END
> <VM2 Rank>
145

> <Conf_Id>
518

> <Probability>
0.01

> <Sum Probability>
99.78

> <Delta G>
3.822

> <G>
79.288

> <E>
46.913

> <-TS>
32.375

> <U+W>
25.451

> <U>
74.712

> <W>
-49.261

> <W(PB)>
-51.535

> <W(SA)>
2.274

> <Valence>
4.001

> <Coulomb>
70.535

> <VdW>
0.175

> <VdW6>
-7.476

> <VdW12>
7.651

> <Bond>
0.220

> <Angle>
1.251

> <Pdih>
2.531

> <Idih>
0.000

> <Tether>
0.000

$$$$
VeraChem MOL file


 26 25  0  0  0  0  0  0  0  0999 V2000     
   20.5174   19.3862   25.7252 N   0  3  0  0  0  0  0  0  0  0  0  0
   20.3361   20.3471   25.3981 H   0  0  0  0  0  0  0  0  0  0  0  0
   21.5056   19.1977   25.4961 H   0  0  0  0  0  0  0  0  0  0  0  0
   19.6167   18.4092   24.9943 C   0  0  0  0  0  0  0  0  0  0  0  0
   18.5818   18.6456   25.2543 H   0  0  0  0  0  0  0  0  0  0  0  0
   19.8426   17.4078   25.3694 H   0  0  0  0  0  0  0  0  0  0  0  0
   19.7845   18.4315   23.4623 C   0  0  0  0  0  0  0  0  0  0  0  0
   20.8262   18.1927   23.2144 H   0  0  0  0  0  0  0  0  0  0  0  0
   19.1615   17.6359   23.0326 H   0  0  0  0  0  0  0  0  0  0  0  0
   19.3851   19.7913   22.8400 C   0  0  0  0  0  0  0  0  0  0  0  0
   20.0878   20.5700   23.1654 H   0  0  0  0  0  0  0  0  0  0  0  0
   18.4001   20.0847   23.2289 H   0  0  0  0  0  0  0  0  0  0  0  0
   19.3133   19.7885   21.2909 C   0  0  0  0  0  0  0  0  0  0  0  0
   18.5401   19.0869   20.9487 H   0  0  0  0  0  0  0  0  0  0  0  0
   18.9691   20.7832   20.9752 H   0  0  0  0  0  0  0  0  0  0  0  0
   20.6581   19.4957   20.5764 C   0  0  0  0  0  0  0  0  0  0  0  0
   21.5007   19.8450   21.1892 H   0  0  0  0  0  0  0  0  0  0  0  0
   20.6958   20.0842   19.6489 H   0  0  0  0  0  0  0  0  0  0  0  0
   20.8462   18.0068   20.2018 C   0  0  0  0  0  0  0  0  0  0  0  0
   20.8532   17.3561   21.0829 H   0  0  0  0  0  0  0  0  0  0  0  0
   21.7980   17.8612   19.6749 H   0  0  0  0  0  0  0  0  0  0  0  0
   20.0427   17.6656   19.5363 H   0  0  0  0  0  0  0  0  0  0  0  0
   20.2867   19.2808   27.2262 C   0  0  0  0  0  0  0  0  0  0  0  0
   20.5147   18.2642   27.5540 H   0  0  0  0  0  0  0  0  0  0  0  0
   20.9404   19.9893   27.7398 H   0  0  0  0  0  0  0  0  0  0  0  0
   19.2429   19.5154   27.4464 H   0  0  0  0  0  0  0  0  0  0  0  0
  1  2  1  0  0  0  0
  1  3  1  0  0  0  0
  1  4  1  0  0  0  0
  4  5  1  0  0  0  0
  4  6  1  0  0  0  0
  4  7  1  0  0  0  0
  7  8  1  0  0  0  0
  7  9  1  0  0  0  0
  7 10  1  0  0  0  0
 10 11  1  0  0  0  0
 10 12  1  0  0  0  0
 10 13  1  0  0  0  0
 13 14  1  0  0  0  0
 13 15  1  0  0  0  0
 13 16  1  0  0  0  0
 16 17  1  0  0  0  0
 16 18  1  0  0  0  0
 16 19  1  0  0  0  0
 19 20  1  0  0  0  0
 19 21  1  0  0  0  0
 19 22  1  0  0  0  0
  1 23  1  0  0  0  0
 23 24  1  0  0  0  0
 23 25  1  0  0  0  0
 23 26  1  0  0  0  0
M  END
> <VM2 Rank>
146

> <Conf_Id>
133

> <Probability>
0.01

> <Sum Probability>
99.79

> <Delta G>
3.832

> <G>
79.298

> <E>
46.713

> <-TS>
32.586

> <U+W>
25.251

> <U>
74.608

> <W>
-49.358

> <W(PB)>
-51.611

> <W(SA)>
2.254

> <Valence>
4.823

> <Coulomb>
69.470

> <VdW>
0.316

> <VdW6>
-7.375

> <VdW12>
7.690

> <Bond>
0.227

> <Angle>
1.209

> <Pdih>
3.386

> <Idih>
0.000

> <Tether>
0.000

$$$$
VeraChem MOL file


 26 25  0  0  0  0  0  0  0  0999 V2000     
   19.6255   19.0613   25.9097 N   0  3  0  0  0  0  0  0  0  0  0  0
   19.2566   18.1101   26.0638 H   0  0  0  0  0  0  0  0  0  0  0  0
   18.8396   19.6027   25.5194 H   0  0  0  0  0  0  0  0  0  0  0  0
   20.7732   19.0215   24.9192 C   0  0  0  0  0  0  0  0  0  0  0  0
   21.5800   18.4406   25.3733 H   0  0  0  0  0  0  0  0  0  0  0  0
   21.1294   20.0446   24.7744 H   0  0  0  0  0  0  0  0  0  0  0  0
   20.4038   18.4037   23.5562 C   0  0  0  0  0  0  0  0  0  0  0  0
   21.3189   18.3203   22.9592 H   0  0  0  0  0  0  0  0  0  0  0  0
   20.0410   17.3783   23.7070 H   0  0  0  0  0  0  0  0  0  0  0  0
   19.3390   19.2328   22.7935 C   0  0  0  0  0  0  0  0  0  0  0  0
   19.6510   20.2840   22.7228 H   0  0  0  0  0  0  0  0  0  0  0  0
   18.4093   19.2299   23.3779 H   0  0  0  0  0  0  0  0  0  0  0  0
   19.0225   18.6767   21.3803 C   0  0  0  0  0  0  0  0  0  0  0  0
   19.1741   17.5887   21.3553 H   0  0  0  0  0  0  0  0  0  0  0  0
   17.9523   18.8301   21.1837 H   0  0  0  0  0  0  0  0  0  0  0  0
   19.8088   19.3514   20.2271 C   0  0  0  0  0  0  0  0  0  0  0  0
   19.5700   20.4237   20.1964 H   0  0  0  0  0  0  0  0  0  0  0  0
   19.4552   18.9344   19.2737 H   0  0  0  0  0  0  0  0  0  0  0  0
   21.3405   19.1702   20.3085 C   0  0  0  0  0  0  0  0  0  0  0  0
   21.6101   18.1100   20.3986 H   0  0  0  0  0  0  0  0  0  0  0  0
   21.7615   19.7129   21.1637 H   0  0  0  0  0  0  0  0  0  0  0  0
   21.8215   19.5627   19.4032 H   0  0  0  0  0  0  0  0  0  0  0  0
   20.0947   19.6724   27.2226 C   0  0  0  0  0  0  0  0  0  0  0  0
   20.9049   19.0651   27.6321 H   0  0  0  0  0  0  0  0  0  0  0  0
   20.4503   20.6886   27.0389 H   0  0  0  0  0  0  0  0  0  0  0  0
   19.2592   19.6954   27.9259 H   0  0  0  0  0  0  0  0  0  0  0  0
  1  2  1  0  0  0  0
  1  3  1  0  0  0  0
  1  4  1  0  0  0  0
  4  5  1  0  0  0  0
  4  6  1  0  0  0  0
  4  7  1  0  0  0  0
  7  8  1  0  0  0  0
  7  9  1  0  0  0  0
  7 10  1  0  0  0  0
 10 11  1  0  0  0  0
 10 12  1  0  0  0  0
 10 13  1  0  0  0  0
 13 14  1  0  0  0  0
 13 15  1  0  0  0  0
 13 16  1  0  0  0  0
 16 17  1  0  0  0  0
 16 18  1  0  0  0  0
 16 19  1  0  0  0  0
 19 20  1  0  0  0  0
 19 21  1  0  0  0  0
 19 22  1  0  0  0  0
  1 23  1  0  0  0  0
 23 24  1  0  0  0  0
 23 25  1  0  0  0  0
 23 26  1  0  0  0  0
M  END
> <VM2 Rank>
147

> <Conf_Id>
424

> <Probability>
0.01

> <Sum Probability>
99.80

> <Delta G>
3.838

> <G>
79.304

> <E>
46.686

> <-TS>
32.618

> <U+W>
25.224

> <U>
74.516

> <W>
-49.293

> <W(PB)>
-51.558

> <W(SA)>
2.266

> <Valence>
4.842

> <Coulomb>
69.332

> <VdW>
0.342

> <VdW6>
-7.369

> <VdW12>
7.711

> <Bond>
0.232

> <Angle>
1.153

> <Pdih>
3.457

> <Idih>
0.000

> <Tether>
0.000

$$$$
VeraChem MOL file


 26 25  0  0  0  0  0  0  0  0999 V2000     
   19.3618   19.2685   25.6842 N   0  3  0  0  0  0  0  0  0  0  0  0
   18.4503   18.8864   25.3878 H   0  0  0  0  0  0  0  0  0  0  0  0
   19.3683   20.2485   25.3638 H   0  0  0  0  0  0  0  0  0  0  0  0
   20.4897   18.4982   25.0253 C   0  0  0  0  0  0  0  0  0  0  0  0
   20.4444   17.4692   25.3908 H   0  0  0  0  0  0  0  0  0  0  0  0
   21.4350   18.9363   25.3554 H   0  0  0  0  0  0  0  0  0  0  0  0
   20.4287   18.4971   23.4851 C   0  0  0  0  0  0  0  0  0  0  0  0
   21.2277   17.8464   23.1059 H   0  0  0  0  0  0  0  0  0  0  0  0
   19.4765   18.0552   23.1666 H   0  0  0  0  0  0  0  0  0  0  0  0
   20.5886   19.9139   22.8826 C   0  0  0  0  0  0  0  0  0  0  0  0
   21.4647   20.3969   23.3374 H   0  0  0  0  0  0  0  0  0  0  0  0
   19.7225   20.5328   23.1525 H   0  0  0  0  0  0  0  0  0  0  0  0
   20.7678   19.9367   21.3424 C   0  0  0  0  0  0  0  0  0  0  0  0
   20.9259   20.9825   21.0445 H   0  0  0  0  0  0  0  0  0  0  0  0
   21.6885   19.4076   21.0602 H   0  0  0  0  0  0  0  0  0  0  0  0
   19.5629   19.3841   20.5376 C   0  0  0  0  0  0  0  0  0  0  0  0
   19.4724   19.9596   19.6056 H   0  0  0  0  0  0  0  0  0  0  0  0
   18.6264   19.5521   21.0875 H   0  0  0  0  0  0  0  0  0  0  0  0
   19.7053   17.8906   20.1614 C   0  0  0  0  0  0  0  0  0  0  0  0
   19.7679   17.2455   21.0444 H   0  0  0  0  0  0  0  0  0  0  0  0
   20.6056   17.7230   19.5561 H   0  0  0  0  0  0  0  0  0  0  0  0
   18.8415   17.5600   19.5702 H   0  0  0  0  0  0  0  0  0  0  0  0
   19.5032   19.2010   27.1984 C   0  0  0  0  0  0  0  0  0  0  0  0
   20.4602   19.6393   27.4896 H   0  0  0  0  0  0  0  0  0  0  0  0
   18.6858   19.7596   27.6599 H   0  0  0  0  0  0  0  0  0  0  0  0
   19.4621   18.1569   27.5166 H   0  0  0  0  0  0  0  0  0  0  0  0
  1  2  1  0  0  0  0
  1  3  1  0  0  0  0
  1  4  1  0  0  0  0
  4  5  1  0  0  0  0
  4  6  1  0  0  0  0
  4  7  1  0  0  0  0
  7  8  1  0  0  0  0
  7  9  1  0  0  0  0
  7 10  1  0  0  0  0
 10 11  1  0  0  0  0
 10 12  1  0  0  0  0
 10 13  1  0  0  0  0
 13 14  1  0  0  0  0
 13 15  1  0  0  0  0
 13 16  1  0  0  0  0
 16 17  1  0  0  0  0
 16 18  1  0  0  0  0
 16 19  1  0  0  0  0
 19 20  1  0  0  0  0
 19 21  1  0  0  0  0
 19 22  1  0  0  0  0
  1 23  1  0  0  0  0
 23 24  1  0  0  0  0
 23 25  1  0  0  0  0
 23 26  1  0  0  0  0
M  END
> <VM2 Rank>
148

> <Conf_Id>
242

> <Probability>
0.01

> <Sum Probability>
99.81

> <Delta G>
3.876

> <G>
79.342

> <E>
46.756

> <-TS>
32.586

> <U+W>
25.294

> <U>
74.608

> <W>
-49.314

> <W(PB)>
-51.566

> <W(SA)>
2.252

> <Valence>
4.823

> <Coulomb>
69.470

> <VdW>
0.315

> <VdW6>
-7.375

> <VdW12>
7.690

> <Bond>
0.227

> <Angle>
1.209

> <Pdih>
3.386

> <Idih>
0.000

> <Tether>
0.000

$$$$
VeraChem MOL file


 26 25  0  0  0  0  0  0  0  0999 V2000     
   19.7068   18.7422   25.8805 N   0  3  0  0  0  0  0  0  0  0  0  0
   19.7419   17.7133   25.8109 H   0  0  0  0  0  0  0  0  0  0  0  0
   18.7543   19.0064   25.5874 H   0  0  0  0  0  0  0  0  0  0  0  0
   20.7305   19.3632   24.9495 C   0  0  0  0  0  0  0  0  0  0  0  0
   21.7198   19.0570   25.2990 H   0  0  0  0  0  0  0  0  0  0  0  0
   20.6573   20.4496   25.0426 H   0  0  0  0  0  0  0  0  0  0  0  0
   20.5640   18.9563   23.4719 C   0  0  0  0  0  0  0  0  0  0  0  0
   21.4209   19.3563   22.9163 H   0  0  0  0  0  0  0  0  0  0  0  0
   20.6076   17.8627   23.3847 H   0  0  0  0  0  0  0  0  0  0  0  0
   19.2516   19.4907   22.8481 C   0  0  0  0  0  0  0  0  0  0  0  0
   19.2587   20.5893   22.8716 H   0  0  0  0  0  0  0  0  0  0  0  0
   18.3990   19.1782   23.4651 H   0  0  0  0  0  0  0  0  0  0  0  0
   18.9908   19.0091   21.3971 C   0  0  0  0  0  0  0  0  0  0  0  0
   18.8735   17.9168   21.3770 H   0  0  0  0  0  0  0  0  0  0  0  0
   18.0189   19.4154   21.0844 H   0  0  0  0  0  0  0  0  0  0  0  0
   20.0547   19.4535   20.3601 C   0  0  0  0  0  0  0  0  0  0  0  0
   20.5172   20.4015   20.6687 H   0  0  0  0  0  0  0  0  0  0  0  0
   19.5487   19.6616   19.4069 H   0  0  0  0  0  0  0  0  0  0  0  0
   21.1413   18.3843   20.0982 C   0  0  0  0  0  0  0  0  0  0  0  0
   20.6943   17.4570   19.7171 H   0  0  0  0  0  0  0  0  0  0  0  0
   21.7061   18.1381   21.0039 H   0  0  0  0  0  0  0  0  0  0  0  0
   21.8576   18.7410   19.3467 H   0  0  0  0  0  0  0  0  0  0  0  0
   19.9683   19.1906   27.3115 C   0  0  0  0  0  0  0  0  0  0  0  0
   19.2248   18.7369   27.9707 H   0  0  0  0  0  0  0  0  0  0  0  0
   20.9694   18.8722   27.6103 H   0  0  0  0  0  0  0  0  0  0  0  0
   19.8944   20.2790   27.3660 H   0  0  0  0  0  0  0  0  0  0  0  0
  1  2  1  0  0  0  0
  1  3  1  0  0  0  0
  1  4  1  0  0  0  0
  4  5  1  0  0  0  0
  4  6  1  0  0  0  0
  4  7  1  0  0  0  0
  7  8  1  0  0  0  0
  7  9  1  0  0  0  0
  7 10  1  0  0  0  0
 10 11  1  0  0  0  0
 10 12  1  0  0  0  0
 10 13  1  0  0  0  0
 13 14  1  0  0  0  0
 13 15  1  0  0  0  0
 13 16  1  0  0  0  0
 16 17  1  0  0  0  0
 16 18  1  0  0  0  0
 16 19  1  0  0  0  0
 19 20  1  0  0  0  0
 19 21  1  0  0  0  0
 19 22  1  0  0  0  0
  1 23  1  0  0  0  0
 23 24  1  0  0  0  0
 23 25  1  0  0  0  0
 23 26  1  0  0  0  0
M  END
> <VM2 Rank>
149

> <Conf_Id>
391

> <Probability>
0.01

> <Sum Probability>
99.82

> <Delta G>
3.878

> <G>
79.344

> <E>
46.765

> <-TS>
32.579

> <U+W>
25.303

> <U>
74.594

> <W>
-49.291

> <W(PB)>
-51.537

> <W(SA)>
2.246

> <Valence>
4.886

> <Coulomb>
69.332

> <VdW>
0.377

> <VdW6>
-7.329

> <VdW12>
7.706

> <Bond>
0.232

> <Angle>
1.250

> <Pdih>
3.404

> <Idih>
0.000

> <Tether>
0.000

$$$$
VeraChem MOL file


 26 25  0  0  0  0  0  0  0  0999 V2000     
   20.2727   18.8001   25.9006 N   0  3  0  0  0  0  0  0  0  0  0  0
   21.1704   19.2532   25.6730 H   0  0  0  0  0  0  0  0  0  0  0  0
   20.4510   17.7858   25.8364 H   0  0  0  0  0  0  0  0  0  0  0  0
   19.2125   19.2080   24.8957 C   0  0  0  0  0  0  0  0  0  0  0  0
   19.0580   20.2862   24.9858 H   0  0  0  0  0  0  0  0  0  0  0  0
   18.2834   18.7058   25.1773 H   0  0  0  0  0  0  0  0  0  0  0  0
   19.5609   18.8536   23.4365 C   0  0  0  0  0  0  0  0  0  0  0  0
   19.7451   17.7742   23.3543 H   0  0  0  0  0  0  0  0  0  0  0  0
   18.6819   19.0762   22.8193 H   0  0  0  0  0  0  0  0  0  0  0  0
   20.7788   19.6463   22.9023 C   0  0  0  0  0  0  0  0  0  0  0  0
   21.6316   19.5078   23.5796 H   0  0  0  0  0  0  0  0  0  0  0  0
   20.5485   20.7207   22.9175 H   0  0  0  0  0  0  0  0  0  0  0  0
   21.2324   19.2377   21.4766 C   0  0  0  0  0  0  0  0  0  0  0  0
   22.1219   19.8339   21.2298 H   0  0  0  0  0  0  0  0  0  0  0  0
   21.5685   18.1916   21.4724 H   0  0  0  0  0  0  0  0  0  0  0  0
   20.1760   19.4661   20.3645 C   0  0  0  0  0  0  0  0  0  0  0  0
   20.6952   19.7789   19.4476 H   0  0  0  0  0  0  0  0  0  0  0  0
   19.5114   20.2990   20.6332 H   0  0  0  0  0  0  0  0  0  0  0  0
   19.3484   18.2017   20.0344 C   0  0  0  0  0  0  0  0  0  0  0  0
   18.7828   17.8400   20.9000 H   0  0  0  0  0  0  0  0  0  0  0  0
   19.9988   17.3863   19.6920 H   0  0  0  0  0  0  0  0  0  0  0  0
   18.6294   18.4122   19.2321 H   0  0  0  0  0  0  0  0  0  0  0  0
   19.8264   19.1766   27.3065 C   0  0  0  0  0  0  0  0  0  0  0  0
   20.5981   18.8778   28.0195 H   0  0  0  0  0  0  0  0  0  0  0  0
   19.6751   20.2571   27.3579 H   0  0  0  0  0  0  0  0  0  0  0  0
   18.8918   18.6605   27.5369 H   0  0  0  0  0  0  0  0  0  0  0  0
  1  2  1  0  0  0  0
  1  3  1  0  0  0  0
  1  4  1  0  0  0  0
  4  5  1  0  0  0  0
  4  6  1  0  0  0  0
  4  7  1  0  0  0  0
  7  8  1  0  0  0  0
  7  9  1  0  0  0  0
  7 10  1  0  0  0  0
 10 11  1  0  0  0  0
 10 12  1  0  0  0  0
 10 13  1  0  0  0  0
 13 14  1  0  0  0  0
 13 15  1  0  0  0  0
 13 16  1  0  0  0  0
 16 17  1  0  0  0  0
 16 18  1  0  0  0  0
 16 19  1  0  0  0  0
 19 20  1  0  0  0  0
 19 21  1  0  0  0  0
 19 22  1  0  0  0  0
  1 23  1  0  0  0  0
 23 24  1  0  0  0  0
 23 25  1  0  0  0  0
 23 26  1  0  0  0  0
M  END
> <VM2 Rank>
150

> <Conf_Id>
1341

> <Probability>
0.01

> <Sum Probability>
99.83

> <Delta G>
3.883

> <G>
79.349

> <E>
46.771

> <-TS>
32.579

> <U+W>
25.309

> <U>
74.594

> <W>
-49.285

> <W(PB)>
-51.538

> <W(SA)>
2.253

> <Valence>
4.886

> <Coulomb>
69.332

> <VdW>
0.376

> <VdW6>
-7.329

> <VdW12>
7.705

> <Bond>
0.232

> <Angle>
1.250

> <Pdih>
3.404

> <Idih>
0.000

> <Tether>
0.000

$$$$
VeraChem MOL file


 26 25  0  0  0  0  0  0  0  0999 V2000     
   19.3468   18.8569   25.4486 N   0  3  0  0  0  0  0  0  0  0  0  0
   19.2124   17.8547   25.6544 H   0  0  0  0  0  0  0  0  0  0  0  0
   18.7715   19.0465   24.6156 H   0  0  0  0  0  0  0  0  0  0  0  0
   20.8079   19.1353   25.1509 C   0  0  0  0  0  0  0  0  0  0  0  0
   21.3701   18.8669   26.0489 H   0  0  0  0  0  0  0  0  0  0  0  0
   20.9297   20.2082   24.9823 H   0  0  0  0  0  0  0  0  0  0  0  0
   21.3734   18.3491   23.9494 C   0  0  0  0  0  0  0  0  0  0  0  0
   22.4601   18.2678   24.0851 H   0  0  0  0  0  0  0  0  0  0  0  0
   20.9917   17.3195   23.9594 H   0  0  0  0  0  0  0  0  0  0  0  0
   21.1157   19.0076   22.5696 C   0  0  0  0  0  0  0  0  0  0  0  0
   21.6452   18.4139   21.8138 H   0  0  0  0  0  0  0  0  0  0  0  0
   21.5744   20.0059   22.5510 H   0  0  0  0  0  0  0  0  0  0  0  0
   19.6194   19.1217   22.1830 C   0  0  0  0  0  0  0  0  0  0  0  0
   19.1331   18.1405   22.2723 H   0  0  0  0  0  0  0  0  0  0  0  0
   19.1145   19.7946   22.8869 H   0  0  0  0  0  0  0  0  0  0  0  0
   19.3922   19.6813   20.7573 C   0  0  0  0  0  0  0  0  0  0  0  0
   19.8926   20.6543   20.6545 H   0  0  0  0  0  0  0  0  0  0  0  0
   18.3185   19.8734   20.6227 H   0  0  0  0  0  0  0  0  0  0  0  0
   19.8670   18.7290   19.6357 C   0  0  0  0  0  0  0  0  0  0  0  0
   19.5897   19.1279   18.6513 H   0  0  0  0  0  0  0  0  0  0  0  0
   19.4059   17.7380   19.7370 H   0  0  0  0  0  0  0  0  0  0  0  0
   20.9566   18.6040   19.6435 H   0  0  0  0  0  0  0  0  0  0  0  0
   18.8855   19.7092   26.6225 C   0  0  0  0  0  0  0  0  0  0  0  0
   17.8336   19.4980   26.8272 H   0  0  0  0  0  0  0  0  0  0  0  0
   19.4880   19.4667   27.5006 H   0  0  0  0  0  0  0  0  0  0  0  0
   19.0077   20.7647   26.3699 H   0  0  0  0  0  0  0  0  0  0  0  0
  1  2  1  0  0  0  0
  1  3  1  0  0  0  0
  1  4  1  0  0  0  0
  4  5  1  0  0  0  0
  4  6  1  0  0  0  0
  4  7  1  0  0  0  0
  7  8  1  0  0  0  0
  7  9  1  0  0  0  0
  7 10  1  0  0  0  0
 10 11  1  0  0  0  0
 10 12  1  0  0  0  0
 10 13  1  0  0  0  0
 13 14  1  0  0  0  0
 13 15  1  0  0  0  0
 13 16  1  0  0  0  0
 16 17  1  0  0  0  0
 16 18  1  0  0  0  0
 16 19  1  0  0  0  0
 19 20  1  0  0  0  0
 19 21  1  0  0  0  0
 19 22  1  0  0  0  0
  1 23  1  0  0  0  0
 23 24  1  0  0  0  0
 23 25  1  0  0  0  0
 23 26  1  0  0  0  0
M  END
> <VM2 Rank>
151

> <Conf_Id>
815

> <Probability>
0.01

> <Sum Probability>
99.84

> <Delta G>
3.892

> <G>
79.358

> <E>
46.982

> <-TS>
32.375

> <U+W>
25.521

> <U>
74.712

> <W>
-49.192

> <W(PB)>
-51.482

> <W(SA)>
2.291

> <Valence>
4.001

> <Coulomb>
70.536

> <VdW>
0.175

> <VdW6>
-7.477

> <VdW12>
7.652

> <Bond>
0.220

> <Angle>
1.251

> <Pdih>
2.531

> <Idih>
0.000

> <Tether>
0.000

$$$$
VeraChem MOL file


 26 25  0  0  0  0  0  0  0  0999 V2000     
   19.7878   18.4303   25.8904 N   0  3  0  0  0  0  0  0  0  0  0  0
   20.6561   18.0641   26.3108 H   0  0  0  0  0  0  0  0  0  0  0  0
   19.2736   17.6009   25.5553 H   0  0  0  0  0  0  0  0  0  0  0  0
   20.1153   19.3473   24.7292 C   0  0  0  0  0  0  0  0  0  0  0  0
   20.6670   20.2041   25.1242 H   0  0  0  0  0  0  0  0  0  0  0  0
   19.1712   19.7074   24.3143 H   0  0  0  0  0  0  0  0  0  0  0  0
   20.9448   18.6608   23.6267 C   0  0  0  0  0  0  0  0  0  0  0  0
   21.8693   18.2696   24.0718 H   0  0  0  0  0  0  0  0  0  0  0  0
   20.3958   17.7940   23.2429 H   0  0  0  0  0  0  0  0  0  0  0  0
   21.3196   19.6265   22.4737 C   0  0  0  0  0  0  0  0  0  0  0  0
   22.0457   19.1422   21.8064 H   0  0  0  0  0  0  0  0  0  0  0  0
   21.8473   20.4866   22.9090 H   0  0  0  0  0  0  0  0  0  0  0  0
   20.1167   20.1515   21.6425 C   0  0  0  0  0  0  0  0  0  0  0  0
   19.2184   20.2440   22.2661 H   0  0  0  0  0  0  0  0  0  0  0  0
   20.3518   21.1739   21.3154 H   0  0  0  0  0  0  0  0  0  0  0  0
   19.7930   19.3235   20.3725 C   0  0  0  0  0  0  0  0  0  0  0  0
   20.6617   19.3244   19.6993 H   0  0  0  0  0  0  0  0  0  0  0  0
   18.9850   19.8290   19.8252 H   0  0  0  0  0  0  0  0  0  0  0  0
   19.3629   17.8671   20.6528 C   0  0  0  0  0  0  0  0  0  0  0  0
   20.2022   17.2691   21.0280 H   0  0  0  0  0  0  0  0  0  0  0  0
   19.0082   17.3883   19.7309 H   0  0  0  0  0  0  0  0  0  0  0  0
   18.5474   17.8279   21.3865 H   0  0  0  0  0  0  0  0  0  0  0  0
   18.9679   19.1829   26.9292 C   0  0  0  0  0  0  0  0  0  0  0  0
   19.5448   20.0362   27.2927 H   0  0  0  0  0  0  0  0  0  0  0  0
   18.0401   19.5318   26.4706 H   0  0  0  0  0  0  0  0  0  0  0  0
   18.7391   18.5116   27.7599 H   0  0  0  0  0  0  0  0  0  0  0  0
  1  2  1  0  0  0  0
  1  3  1  0  0  0  0
  1  4  1  0  0  0  0
  4  5  1  0  0  0  0
  4  6  1  0  0  0  0
  4  7  1  0  0  0  0
  7  8  1  0  0  0  0
  7  9  1  0  0  0  0
  7 10  1  0  0  0  0
 10 11  1  0  0  0  0
 10 12  1  0  0  0  0
 10 13  1  0  0  0  0
 13 14  1  0  0  0  0
 13 15  1  0  0  0  0
 13 16  1  0  0  0  0
 16 17  1  0  0  0  0
 16 18  1  0  0  0  0
 16 19  1  0  0  0  0
 19 20  1  0  0  0  0
 19 21  1  0  0  0  0
 19 22  1  0  0  0  0
  1 23  1  0  0  0  0
 23 24  1  0  0  0  0
 23 25  1  0  0  0  0
 23 26  1  0  0  0  0
M  END
> <VM2 Rank>
152

> <Conf_Id>
1241

> <Probability>
0.01

> <Sum Probability>
99.85

> <Delta G>
3.906

> <G>
79.372

> <E>
46.848

> <-TS>
32.524

> <U+W>
25.386

> <U>
74.853

> <W>
-49.467

> <W(PB)>
-51.720

> <W(SA)>
2.254

> <Valence>
5.100

> <Coulomb>
69.478

> <VdW>
0.275

> <VdW6>
-7.403

> <VdW12>
7.678

> <Bond>
0.247

> <Angle>
1.393

> <Pdih>
3.460

> <Idih>
0.000

> <Tether>
0.000

$$$$
VeraChem MOL file


 26 25  0  0  0  0  0  0  0  0999 V2000     
   20.2558   18.4781   25.9070 N   0  3  0  0  0  0  0  0  0  0  0  0
   20.9488   17.7717   25.6147 H   0  0  0  0  0  0  0  0  0  0  0  0
   19.4519   17.9414   26.2681 H   0  0  0  0  0  0  0  0  0  0  0  0
   19.8322   19.3184   24.7191 C   0  0  0  0  0  0  0  0  0  0  0  0
   20.7111   19.8644   24.3687 H   0  0  0  0  0  0  0  0  0  0  0  0
   19.0929   20.0435   25.0683 H   0  0  0  0  0  0  0  0  0  0  0  0
   19.2374   18.4865   23.5662 C   0  0  0  0  0  0  0  0  0  0  0  0
   19.9755   17.7510   23.2280 H   0  0  0  0  0  0  0  0  0  0  0  0
   18.3820   17.9138   23.9484 H   0  0  0  0  0  0  0  0  0  0  0  0
   18.7571   19.3650   22.3829 C   0  0  0  0  0  0  0  0  0  0  0  0
   18.0376   20.0978   22.7740 H   0  0  0  0  0  0  0  0  0  0  0  0
   18.1923   18.7489   21.6698 H   0  0  0  0  0  0  0  0  0  0  0  0
   19.8845   20.1278   21.6342 C   0  0  0  0  0  0  0  0  0  0  0  0
   19.4714   21.0839   21.2840 H   0  0  0  0  0  0  0  0  0  0  0  0
   20.6997   20.3954   22.3185 H   0  0  0  0  0  0  0  0  0  0  0  0
   20.4570   19.3912   20.3961 C   0  0  0  0  0  0  0  0  0  0  0  0
   21.1825   20.0533   19.9031 H   0  0  0  0  0  0  0  0  0  0  0  0
   19.6553   19.2213   19.6637 H   0  0  0  0  0  0  0  0  0  0  0  0
   21.1516   18.0497   20.7164 C   0  0  0  0  0  0  0  0  0  0  0  0
   21.9046   18.1709   21.5058 H   0  0  0  0  0  0  0  0  0  0  0  0
   21.6596   17.6590   19.8252 H   0  0  0  0  0  0  0  0  0  0  0  0
   20.4262   17.2919   21.0362 H   0  0  0  0  0  0  0  0  0  0  0  0
   20.8323   19.3732   26.9951 C   0  0  0  0  0  0  0  0  0  0  0  0
   21.7006   19.9052   26.6001 H   0  0  0  0  0  0  0  0  0  0  0  0
   20.0712   20.0901   27.3111 H   0  0  0  0  0  0  0  0  0  0  0  0
   21.1329   18.7560   27.8447 H   0  0  0  0  0  0  0  0  0  0  0  0
  1  2  1  0  0  0  0
  1  3  1  0  0  0  0
  1  4  1  0  0  0  0
  4  5  1  0  0  0  0
  4  6  1  0  0  0  0
  4  7  1  0  0  0  0
  7  8  1  0  0  0  0
  7  9  1  0  0  0  0
  7 10  1  0  0  0  0
 10 11  1  0  0  0  0
 10 12  1  0  0  0  0
 10 13  1  0  0  0  0
 13 14  1  0  0  0  0
 13 15  1  0  0  0  0
 13 16  1  0  0  0  0
 16 17  1  0  0  0  0
 16 18  1  0  0  0  0
 16 19  1  0  0  0  0
 19 20  1  0  0  0  0
 19 21  1  0  0  0  0
 19 22  1  0  0  0  0
  1 23  1  0  0  0  0
 23 24  1  0  0  0  0
 23 25  1  0  0  0  0
 23 26  1  0  0  0  0
M  END
> <VM2 Rank>
153

> <Conf_Id>
1239

> <Probability>
0.01

> <Sum Probability>
99.86

> <Delta G>
3.917

> <G>
79.383

> <E>
46.860

> <-TS>
32.524

> <U+W>
25.398

> <U>
74.853

> <W>
-49.455

> <W(PB)>
-51.723

> <W(SA)>
2.268

> <Valence>
5.100

> <Coulomb>
69.478

> <VdW>
0.275

> <VdW6>
-7.403

> <VdW12>
7.678

> <Bond>
0.247

> <Angle>
1.394

> <Pdih>
3.459

> <Idih>
0.000

> <Tether>
0.000

$$$$
VeraChem MOL file


 26 25  0  0  0  0  0  0  0  0999 V2000     
   20.2061   19.3039   25.9676 N   0  3  0  0  0  0  0  0  0  0  0  0
   21.0061   19.8718   25.6511 H   0  0  0  0  0  0  0  0  0  0  0  0
   20.4257   19.0522   26.9444 H   0  0  0  0  0  0  0  0  0  0  0  0
   20.0984   18.0402   25.1283 C   0  0  0  0  0  0  0  0  0  0  0  0
   19.2345   17.4760   25.4886 H   0  0  0  0  0  0  0  0  0  0  0  0
   20.9935   17.4434   25.3212 H   0  0  0  0  0  0  0  0  0  0  0  0
   19.9674   18.2704   23.6069 C   0  0  0  0  0  0  0  0  0  0  0  0
   19.8763   17.2929   23.1153 H   0  0  0  0  0  0  0  0  0  0  0  0
   19.0381   18.8152   23.4025 H   0  0  0  0  0  0  0  0  0  0  0  0
   21.1753   19.0348   23.0138 C   0  0  0  0  0  0  0  0  0  0  0  0
   22.1029   18.5546   23.3551 H   0  0  0  0  0  0  0  0  0  0  0  0
   21.1955   20.0591   23.4096 H   0  0  0  0  0  0  0  0  0  0  0  0
   21.1984   19.0897   21.4643 C   0  0  0  0  0  0  0  0  0  0  0  0
   22.1222   19.6048   21.1664 H   0  0  0  0  0  0  0  0  0  0  0  0
   21.2801   18.0752   21.0504 H   0  0  0  0  0  0  0  0  0  0  0  0
   20.0016   19.8374   20.8213 C   0  0  0  0  0  0  0  0  0  0  0  0
   20.3588   20.3611   19.9234 H   0  0  0  0  0  0  0  0  0  0  0  0
   19.6308   20.6193   21.4987 H   0  0  0  0  0  0  0  0  0  0  0  0
   18.8459   18.9011   20.3970 C   0  0  0  0  0  0  0  0  0  0  0  0
   18.4146   18.3640   21.2486 H   0  0  0  0  0  0  0  0  0  0  0  0
   19.1922   18.1565   19.6685 H   0  0  0  0  0  0  0  0  0  0  0  0
   18.0393   19.4770   19.9252 H   0  0  0  0  0  0  0  0  0  0  0  0
   18.9148   20.1125   25.9178 C   0  0  0  0  0  0  0  0  0  0  0  0
   19.0186   20.9913   26.5582 H   0  0  0  0  0  0  0  0  0  0  0  0
   18.7257   20.4278   24.8897 H   0  0  0  0  0  0  0  0  0  0  0  0
   18.0893   19.4923   26.2736 H   0  0  0  0  0  0  0  0  0  0  0  0
  1  2  1  0  0  0  0
  1  3  1  0  0  0  0
  1  4  1  0  0  0  0
  4  5  1  0  0  0  0
  4  6  1  0  0  0  0
  4  7  1  0  0  0  0
  7  8  1  0  0  0  0
  7  9  1  0  0  0  0
  7 10  1  0  0  0  0
 10 11  1  0  0  0  0
 10 12  1  0  0  0  0
 10 13  1  0  0  0  0
 13 14  1  0  0  0  0
 13 15  1  0  0  0  0
 13 16  1  0  0  0  0
 16 17  1  0  0  0  0
 16 18  1  0  0  0  0
 16 19  1  0  0  0  0
 19 20  1  0  0  0  0
 19 21  1  0  0  0  0
 19 22  1  0  0  0  0
  1 23  1  0  0  0  0
 23 24  1  0  0  0  0
 23 25  1  0  0  0  0
 23 26  1  0  0  0  0
M  END
> <VM2 Rank>
154

> <Conf_Id>
1335

> <Probability>
0.01

> <Sum Probability>
99.87

> <Delta G>
3.934

> <G>
79.400

> <E>
46.583

> <-TS>
32.817

> <U+W>
25.121

> <U>
74.888

> <W>
-49.767

> <W(PB)>
-51.981

> <W(SA)>
2.214

> <Valence>
5.066

> <Coulomb>
69.354

> <VdW>
0.468

> <VdW6>
-8.349

> <VdW12>
8.817

> <Bond>
0.269

> <Angle>
1.348

> <Pdih>
3.450

> <Idih>
0.000

> <Tether>
0.000

$$$$
VeraChem MOL file


 26 25  0  0  0  0  0  0  0  0999 V2000     
   19.2298   19.0719   25.4593 N   0  3  0  0  0  0  0  0  0  0  0  0
   18.5969   18.3359   25.1098 H   0  0  0  0  0  0  0  0  0  0  0  0
   18.9403   19.9371   24.9790 H   0  0  0  0  0  0  0  0  0  0  0  0
   20.6660   18.7360   25.1066 C   0  0  0  0  0  0  0  0  0  0  0  0
   20.9277   17.8149   25.6336 H   0  0  0  0  0  0  0  0  0  0  0  0
   21.3034   19.5388   25.4855 H   0  0  0  0  0  0  0  0  0  0  0  0
   20.9105   18.5479   23.5966 C   0  0  0  0  0  0  0  0  0  0  0  0
   21.9436   18.2036   23.4556 H   0  0  0  0  0  0  0  0  0  0  0  0
   20.2654   17.7445   23.2239 H   0  0  0  0  0  0  0  0  0  0  0  0
   20.6956   19.8549   22.7910 C   0  0  0  0  0  0  0  0  0  0  0  0
   21.3663   20.6220   23.2026 H   0  0  0  0  0  0  0  0  0  0  0  0
   19.6758   20.2375   22.9293 H   0  0  0  0  0  0  0  0  0  0  0  0
   20.9970   19.7031   21.2769 C   0  0  0  0  0  0  0  0  0  0  0  0
   21.4294   20.6474   20.9182 H   0  0  0  0  0  0  0  0  0  0  0  0
   21.7741   18.9432   21.1161 H   0  0  0  0  0  0  0  0  0  0  0  0
   19.7594   19.3940   20.3958 C   0  0  0  0  0  0  0  0  0  0  0  0
   20.0770   19.3767   19.3439 H   0  0  0  0  0  0  0  0  0  0  0  0
   19.0329   20.2144   20.4797 H   0  0  0  0  0  0  0  0  0  0  0  0
   19.0608   18.0561   20.7235 C   0  0  0  0  0  0  0  0  0  0  0  0
   19.7757   17.2232   20.7166 H   0  0  0  0  0  0  0  0  0  0  0  0
   18.2839   17.8374   19.9796 H   0  0  0  0  0  0  0  0  0  0  0  0
   18.5723   18.0912   21.7047 H   0  0  0  0  0  0  0  0  0  0  0  0
   19.0889   19.2262   26.9672 C   0  0  0  0  0  0  0  0  0  0  0  0
   19.3707   18.2888   27.4519 H   0  0  0  0  0  0  0  0  0  0  0  0
   19.7439   20.0308   27.3086 H   0  0  0  0  0  0  0  0  0  0  0  0
   18.0512   19.4682   27.2073 H   0  0  0  0  0  0  0  0  0  0  0  0
  1  2  1  0  0  0  0
  1  3  1  0  0  0  0
  1  4  1  0  0  0  0
  4  5  1  0  0  0  0
  4  6  1  0  0  0  0
  4  7  1  0  0  0  0
  7  8  1  0  0  0  0
  7  9  1  0  0  0  0
  7 10  1  0  0  0  0
 10 11  1  0  0  0  0
 10 12  1  0  0  0  0
 10 13  1  0  0  0  0
 13 14  1  0  0  0  0
 13 15  1  0  0  0  0
 13 16  1  0  0  0  0
 16 17  1  0  0  0  0
 16 18  1  0  0  0  0
 16 19  1  0  0  0  0
 19 20  1  0  0  0  0
 19 21  1  0  0  0  0
 19 22  1  0  0  0  0
  1 23  1  0  0  0  0
 23 24  1  0  0  0  0
 23 25  1  0  0  0  0
 23 26  1  0  0  0  0
M  END
> <VM2 Rank>
155

> <Conf_Id>
1243

> <Probability>
0.01

> <Sum Probability>
99.88

> <Delta G>
3.951

> <G>
79.417

> <E>
46.833

> <-TS>
32.584

> <U+W>
25.371

> <U>
74.907

> <W>
-49.536

> <W(PB)>
-51.747

> <W(SA)>
2.211

> <Valence>
4.797

> <Coulomb>
69.863

> <VdW>
0.248

> <VdW6>
-7.455

> <VdW12>
7.702

> <Bond>
0.232

> <Angle>
1.219

> <Pdih>
3.345

> <Idih>
0.000

> <Tether>
0.000

$$$$
VeraChem MOL file


 26 25  0  0  0  0  0  0  0  0999 V2000     
   20.7016   19.2221   25.5116 N   0  3  0  0  0  0  0  0  0  0  0  0
   20.8434   20.1314   25.0467 H   0  0  0  0  0  0  0  0  0  0  0  0
   21.4930   18.6315   25.2126 H   0  0  0  0  0  0  0  0  0  0  0  0
   19.3911   18.6058   25.0615 C   0  0  0  0  0  0  0  0  0  0  0  0
   18.5798   19.2607   25.3890 H   0  0  0  0  0  0  0  0  0  0  0  0
   19.2844   17.6471   25.5753 H   0  0  0  0  0  0  0  0  0  0  0  0
   19.2961   18.3832   23.5394 C   0  0  0  0  0  0  0  0  0  0  0  0
   20.1145   17.7291   23.2186 H   0  0  0  0  0  0  0  0  0  0  0  0
   18.3661   17.8386   23.3287 H   0  0  0  0  0  0  0  0  0  0  0  0
   19.2989   19.7124   22.7415 C   0  0  0  0  0  0  0  0  0  0  0  0
   20.2083   20.2917   22.9481 H   0  0  0  0  0  0  0  0  0  0  0  0
   18.4601   20.3255   23.0998 H   0  0  0  0  0  0  0  0  0  0  0  0
   19.1409   19.5138   21.2112 C   0  0  0  0  0  0  0  0  0  0  0  0
   18.5462   18.6141   21.0018 H   0  0  0  0  0  0  0  0  0  0  0  0
   18.5532   20.3542   20.8164 H   0  0  0  0  0  0  0  0  0  0  0  0
   20.4740   19.4670   20.4211 C   0  0  0  0  0  0  0  0  0  0  0  0
   21.0125   20.4163   20.5498 H   0  0  0  0  0  0  0  0  0  0  0  0
   20.2407   19.3936   19.3496 H   0  0  0  0  0  0  0  0  0  0  0  0
   21.4031   18.2950   20.8062 C   0  0  0  0  0  0  0  0  0  0  0  0
   21.8048   18.4207   21.8189 H   0  0  0  0  0  0  0  0  0  0  0  0
   22.2583   18.2427   20.1200 H   0  0  0  0  0  0  0  0  0  0  0  0
   20.8731   17.3351   20.7552 H   0  0  0  0  0  0  0  0  0  0  0  0
   20.7023   19.3908   27.0245 C   0  0  0  0  0  0  0  0  0  0  0  0
   21.6504   19.8355   27.3351 H   0  0  0  0  0  0  0  0  0  0  0  0
   19.8761   20.0441   27.3134 H   0  0  0  0  0  0  0  0  0  0  0  0
   20.5822   18.4124   27.4949 H   0  0  0  0  0  0  0  0  0  0  0  0
  1  2  1  0  0  0  0
  1  3  1  0  0  0  0
  1  4  1  0  0  0  0
  4  5  1  0  0  0  0
  4  6  1  0  0  0  0
  4  7  1  0  0  0  0
  7  8  1  0  0  0  0
  7  9  1  0  0  0  0
  7 10  1  0  0  0  0
 10 11  1  0  0  0  0
 10 12  1  0  0  0  0
 10 13  1  0  0  0  0
 13 14  1  0  0  0  0
 13 15  1  0  0  0  0
 13 16  1  0  0  0  0
 16 17  1  0  0  0  0
 16 18  1  0  0  0  0
 16 19  1  0  0  0  0
 19 20  1  0  0  0  0
 19 21  1  0  0  0  0
 19 22  1  0  0  0  0
  1 23  1  0  0  0  0
 23 24  1  0  0  0  0
 23 25  1  0  0  0  0
 23 26  1  0  0  0  0
M  END
> <VM2 Rank>
156

> <Conf_Id>
156

> <Probability>
0.01

> <Sum Probability>
99.89

> <Delta G>
3.962

> <G>
79.428

> <E>
46.845

> <-TS>
32.584

> <U+W>
25.383

> <U>
74.907

> <W>
-49.524

> <W(PB)>
-51.776

> <W(SA)>
2.251

> <Valence>
4.797

> <Coulomb>
69.863

> <VdW>
0.248

> <VdW6>
-7.454

> <VdW12>
7.702

> <Bond>
0.232

> <Angle>
1.219

> <Pdih>
3.345

> <Idih>
0.000

> <Tether>
0.000

$$$$
VeraChem MOL file


 26 25  0  0  0  0  0  0  0  0999 V2000     
   19.6654   19.2485   25.9484 N   0  3  0  0  0  0  0  0  0  0  0  0
   19.4334   18.9505   26.9092 H   0  0  0  0  0  0  0  0  0  0  0  0
   18.7911   19.6449   25.5726 H   0  0  0  0  0  0  0  0  0  0  0  0
   20.0853   18.0389   25.1278 C   0  0  0  0  0  0  0  0  0  0  0  0
   19.3184   17.2718   25.2618 H   0  0  0  0  0  0  0  0  0  0  0  0
   21.0182   17.6588   25.5518 H   0  0  0  0  0  0  0  0  0  0  0  0
   20.2732   18.3018   23.6177 C   0  0  0  0  0  0  0  0  0  0  0  0
   21.0848   19.0251   23.4750 H   0  0  0  0  0  0  0  0  0  0  0  0
   20.5947   17.3666   23.1407 H   0  0  0  0  0  0  0  0  0  0  0  0
   18.9800   18.8098   22.9360 C   0  0  0  0  0  0  0  0  0  0  0  0
   18.7250   19.8059   23.3221 H   0  0  0  0  0  0  0  0  0  0  0  0
   18.1473   18.1491   23.2150 H   0  0  0  0  0  0  0  0  0  0  0  0
   19.0548   18.8699   21.3883 C   0  0  0  0  0  0  0  0  0  0  0  0
   19.2096   17.8629   20.9771 H   0  0  0  0  0  0  0  0  0  0  0  0
   18.0690   19.1894   21.0228 H   0  0  0  0  0  0  0  0  0  0  0  0
   20.1173   19.8493   20.8254 C   0  0  0  0  0  0  0  0  0  0  0  0
   20.2736   20.6852   21.5214 H   0  0  0  0  0  0  0  0  0  0  0  0
   19.7252   20.2961   19.9009 H   0  0  0  0  0  0  0  0  0  0  0  0
   21.4656   19.1696   20.4897 C   0  0  0  0  0  0  0  0  0  0  0  0
   22.1699   19.9004   20.0716 H   0  0  0  0  0  0  0  0  0  0  0  0
   21.3292   18.3756   19.7441 H   0  0  0  0  0  0  0  0  0  0  0  0
   21.9361   18.7249   21.3733 H   0  0  0  0  0  0  0  0  0  0  0  0
   20.7664   20.3022   25.9835 C   0  0  0  0  0  0  0  0  0  0  0  0
   20.4422   21.1371   26.6087 H   0  0  0  0  0  0  0  0  0  0  0  0
   21.6734   19.8595   26.4008 H   0  0  0  0  0  0  0  0  0  0  0  0
   20.9593   20.6567   24.9689 H   0  0  0  0  0  0  0  0  0  0  0  0
  1  2  1  0  0  0  0
  1  3  1  0  0  0  0
  1  4  1  0  0  0  0
  4  5  1  0  0  0  0
  4  6  1  0  0  0  0
  4  7  1  0  0  0  0
  7  8  1  0  0  0  0
  7  9  1  0  0  0  0
  7 10  1  0  0  0  0
 10 11  1  0  0  0  0
 10 12  1  0  0  0  0
 10 13  1  0  0  0  0
 13 14  1  0  0  0  0
 13 15  1  0  0  0  0
 13 16  1  0  0  0  0
 16 17  1  0  0  0  0
 16 18  1  0  0  0  0
 16 19  1  0  0  0  0
 19 20  1  0  0  0  0
 19 21  1  0  0  0  0
 19 22  1  0  0  0  0
  1 23  1  0  0  0  0
 23 24  1  0  0  0  0
 23 25  1  0  0  0  0
 23 26  1  0  0  0  0
M  END
> <VM2 Rank>
157

> <Conf_Id>
1327

> <Probability>
0.01

> <Sum Probability>
99.90

> <Delta G>
3.996

> <G>
79.462

> <E>
46.645

> <-TS>
32.817

> <U+W>
25.183

> <U>
74.888

> <W>
-49.705

> <W(PB)>
-51.913

> <W(SA)>
2.209

> <Valence>
5.066

> <Coulomb>
69.354

> <VdW>
0.468

> <VdW6>
-8.349

> <VdW12>
8.817

> <Bond>
0.269

> <Angle>
1.348

> <Pdih>
3.450

> <Idih>
0.000

> <Tether>
0.000

$$$$
VeraChem MOL file


 26 25  0  0  0  0  0  0  0  0999 V2000     
   19.2891   18.3573   25.6041 N   0  3  0  0  0  0  0  0  0  0  0  0
   19.8669   17.5028   25.6234 H   0  0  0  0  0  0  0  0  0  0  0  0
   18.3156   18.0228   25.6826 H   0  0  0  0  0  0  0  0  0  0  0  0
   19.4718   19.0856   24.2830 C   0  0  0  0  0  0  0  0  0  0  0  0
   18.8814   20.0044   24.3219 H   0  0  0  0  0  0  0  0  0  0  0  0
   19.0490   18.4481   23.5052 H   0  0  0  0  0  0  0  0  0  0  0  0
   20.9381   19.4218   23.9344 C   0  0  0  0  0  0  0  0  0  0  0  0
   21.3302   20.1003   24.7029 H   0  0  0  0  0  0  0  0  0  0  0  0
   21.5560   18.5154   23.9777 H   0  0  0  0  0  0  0  0  0  0  0  0
   21.0969   20.1078   22.5535 C   0  0  0  0  0  0  0  0  0  0  0  0
   22.0082   20.7209   22.5857 H   0  0  0  0  0  0  0  0  0  0  0  0
   20.2758   20.8169   22.3836 H   0  0  0  0  0  0  0  0  0  0  0  0
   21.2396   19.1341   21.3520 C   0  0  0  0  0  0  0  0  0  0  0  0
   21.4541   19.7243   20.4504 H   0  0  0  0  0  0  0  0  0  0  0  0
   22.1250   18.5029   21.5098 H   0  0  0  0  0  0  0  0  0  0  0  0
   20.0234   18.2198   21.0624 C   0  0  0  0  0  0  0  0  0  0  0  0
   19.8563   17.5313   21.9004 H   0  0  0  0  0  0  0  0  0  0  0  0
   20.2672   17.5812   20.2019 H   0  0  0  0  0  0  0  0  0  0  0  0
   18.7285   19.0014   20.7422 C   0  0  0  0  0  0  0  0  0  0  0  0
   18.3896   19.5970   21.5982 H   0  0  0  0  0  0  0  0  0  0  0  0
   17.9177   18.3105   20.4777 H   0  0  0  0  0  0  0  0  0  0  0  0
   18.8798   19.6805   19.8932 H   0  0  0  0  0  0  0  0  0  0  0  0
   19.6206   19.2622   26.7853 C   0  0  0  0  0  0  0  0  0  0  0  0
   20.6701   19.5581   26.7313 H   0  0  0  0  0  0  0  0  0  0  0  0
   18.9829   20.1481   26.7487 H   0  0  0  0  0  0  0  0  0  0  0  0
   19.4408   18.7168   27.7144 H   0  0  0  0  0  0  0  0  0  0  0  0
  1  2  1  0  0  0  0
  1  3  1  0  0  0  0
  1  4  1  0  0  0  0
  4  5  1  0  0  0  0
  4  6  1  0  0  0  0
  4  7  1  0  0  0  0
  7  8  1  0  0  0  0
  7  9  1  0  0  0  0
  7 10  1  0  0  0  0
 10 11  1  0  0  0  0
 10 12  1  0  0  0  0
 10 13  1  0  0  0  0
 13 14  1  0  0  0  0
 13 15  1  0  0  0  0
 13 16  1  0  0  0  0
 16 17  1  0  0  0  0
 16 18  1  0  0  0  0
 16 19  1  0  0  0  0
 19 20  1  0  0  0  0
 19 21  1  0  0  0  0
 19 22  1  0  0  0  0
  1 23  1  0  0  0  0
 23 24  1  0  0  0  0
 23 25  1  0  0  0  0
 23 26  1  0  0  0  0
M  END
> <VM2 Rank>
158

> <Conf_Id>
1375

> <Probability>
0.01

> <Sum Probability>
99.91

> <Delta G>
4.026

> <G>
79.492

> <E>
46.319

> <-TS>
33.173

> <U+W>
24.857

> <U>
74.835

> <W>
-49.977

> <W(PB)>
-52.172

> <W(SA)>
2.195

> <Valence>
4.934

> <Coulomb>
69.669

> <VdW>
0.232

> <VdW6>
-8.762

> <VdW12>
8.994

> <Bond>
0.278

> <Angle>
1.765

> <Pdih>
2.890

> <Idih>
0.000

> <Tether>
0.000

$$$$
VeraChem MOL file


 26 25  0  0  0  0  0  0  0  0999 V2000     
   20.3087   19.6466   25.2501 N   0  3  0  0  0  0  0  0  0  0  0  0
   20.9163   20.0110   24.5016 H   0  0  0  0  0  0  0  0  0  0  0  0
   20.9478   19.2710   25.9678 H   0  0  0  0  0  0  0  0  0  0  0  0
   19.4271   18.5389   24.7072 C   0  0  0  0  0  0  0  0  0  0  0  0
   18.7428   18.9723   23.9751 H   0  0  0  0  0  0  0  0  0  0  0  0
   18.8300   18.1555   25.5385 H   0  0  0  0  0  0  0  0  0  0  0  0
   20.2112   17.3785   24.0644 C   0  0  0  0  0  0  0  0  0  0  0  0
   20.8347   16.9068   24.8356 H   0  0  0  0  0  0  0  0  0  0  0  0
   19.4969   16.6090   23.7429 H   0  0  0  0  0  0  0  0  0  0  0  0
   21.1103   17.7741   22.8624 C   0  0  0  0  0  0  0  0  0  0  0  0
   21.6526   16.8702   22.5520 H   0  0  0  0  0  0  0  0  0  0  0  0
   21.8869   18.4849   23.1743 H   0  0  0  0  0  0  0  0  0  0  0  0
   20.3469   18.3157   21.6249 C   0  0  0  0  0  0  0  0  0  0  0  0
   20.9343   18.0702   20.7292 H   0  0  0  0  0  0  0  0  0  0  0  0
   19.3899   17.7878   21.5117 H   0  0  0  0  0  0  0  0  0  0  0  0
   20.1170   19.8468   21.6393 C   0  0  0  0  0  0  0  0  0  0  0  0
   21.0788   20.3649   21.7585 H   0  0  0  0  0  0  0  0  0  0  0  0
   19.4915   20.1400   22.4898 H   0  0  0  0  0  0  0  0  0  0  0  0
   19.4401   20.3302   20.3391 C   0  0  0  0  0  0  0  0  0  0  0  0
   19.2855   21.4167   20.3632 H   0  0  0  0  0  0  0  0  0  0  0  0
   18.4604   19.8537   20.2036 H   0  0  0  0  0  0  0  0  0  0  0  0
   20.0574   20.0979   19.4615 H   0  0  0  0  0  0  0  0  0  0  0  0
   19.4467   20.7592   25.8296 C   0  0  0  0  0  0  0  0  0  0  0  0
   18.8354   20.3547   26.6393 H   0  0  0  0  0  0  0  0  0  0  0  0
   20.0940   21.5497   26.2159 H   0  0  0  0  0  0  0  0  0  0  0  0
   18.8023   21.1606   25.0445 H   0  0  0  0  0  0  0  0  0  0  0  0
  1  2  1  0  0  0  0
  1  3  1  0  0  0  0
  1  4  1  0  0  0  0
  4  5  1  0  0  0  0
  4  6  1  0  0  0  0
  4  7  1  0  0  0  0
  7  8  1  0  0  0  0
  7  9  1  0  0  0  0
  7 10  1  0  0  0  0
 10 11  1  0  0  0  0
 10 12  1  0  0  0  0
 10 13  1  0  0  0  0
 13 14  1  0  0  0  0
 13 15  1  0  0  0  0
 13 16  1  0  0  0  0
 16 17  1  0  0  0  0
 16 18  1  0  0  0  0
 16 19  1  0  0  0  0
 19 20  1  0  0  0  0
 19 21  1  0  0  0  0
 19 22  1  0  0  0  0
  1 23  1  0  0  0  0
 23 24  1  0  0  0  0
 23 25  1  0  0  0  0
 23 26  1  0  0  0  0
M  END
> <VM2 Rank>
159

> <Conf_Id>
241

> <Probability>
0.01

> <Sum Probability>
99.92

> <Delta G>
4.055

> <G>
79.521

> <E>
46.796

> <-TS>
32.725

> <U+W>
25.334

> <U>
74.861

> <W>
-49.527

> <W(PB)>
-51.763

> <W(SA)>
2.236

> <Valence>
4.458

> <Coulomb>
70.609

> <VdW>
-0.205

> <VdW6>
-8.103

> <VdW12>
7.898

> <Bond>
0.231

> <Angle>
1.446

> <Pdih>
2.781

> <Idih>
0.000

> <Tether>
0.000

$$$$
VeraChem MOL file


 26 25  0  0  0  0  0  0  0  0999 V2000     
   19.9751   19.4964   26.0493 N   0  3  0  0  0  0  0  0  0  0  0  0
   19.3147   20.2177   25.7235 H   0  0  0  0  0  0  0  0  0  0  0  0
   20.3827   19.8791   26.9172 H   0  0  0  0  0  0  0  0  0  0  0  0
   21.0748   19.2894   25.0192 C   0  0  0  0  0  0  0  0  0  0  0  0
   21.7424   18.5135   25.4025 H   0  0  0  0  0  0  0  0  0  0  0  0
   21.6437   20.2206   24.9568 H   0  0  0  0  0  0  0  0  0  0  0  0
   20.5929   18.9002   23.6042 C   0  0  0  0  0  0  0  0  0  0  0  0
   21.4824   18.7319   22.9851 H   0  0  0  0  0  0  0  0  0  0  0  0
   20.0503   17.9471   23.6432 H   0  0  0  0  0  0  0  0  0  0  0  0
   19.7093   19.9900   22.9497 C   0  0  0  0  0  0  0  0  0  0  0  0
   20.2907   20.9166   22.8457 H   0  0  0  0  0  0  0  0  0  0  0  0
   18.8704   20.2281   23.6168 H   0  0  0  0  0  0  0  0  0  0  0  0
   19.1212   19.5934   21.5706 C   0  0  0  0  0  0  0  0  0  0  0  0
   18.4489   18.7314   21.6807 H   0  0  0  0  0  0  0  0  0  0  0  0
   18.4841   20.4226   21.2328 H   0  0  0  0  0  0  0  0  0  0  0  0
   20.1745   19.3147   20.4670 C   0  0  0  0  0  0  0  0  0  0  0  0
   21.0882   19.8957   20.6548 H   0  0  0  0  0  0  0  0  0  0  0  0
   19.7797   19.6762   19.5071 H   0  0  0  0  0  0  0  0  0  0  0  0
   20.5138   17.8141   20.3071 C   0  0  0  0  0  0  0  0  0  0  0  0
   20.9337   17.3851   21.2235 H   0  0  0  0  0  0  0  0  0  0  0  0
   21.2496   17.6702   19.5054 H   0  0  0  0  0  0  0  0  0  0  0  0
   19.6184   17.2362   20.0438 H   0  0  0  0  0  0  0  0  0  0  0  0
   19.2464   18.1917   26.3500 C   0  0  0  0  0  0  0  0  0  0  0  0
   18.7646   17.8292   25.4397 H   0  0  0  0  0  0  0  0  0  0  0  0
   19.9667   17.4530   26.7082 H   0  0  0  0  0  0  0  0  0  0  0  0
   18.4912   18.3730   27.1179 H   0  0  0  0  0  0  0  0  0  0  0  0
  1  2  1  0  0  0  0
  1  3  1  0  0  0  0
  1  4  1  0  0  0  0
  4  5  1  0  0  0  0
  4  6  1  0  0  0  0
  4  7  1  0  0  0  0
  7  8  1  0  0  0  0
  7  9  1  0  0  0  0
  7 10  1  0  0  0  0
 10 11  1  0  0  0  0
 10 12  1  0  0  0  0
 10 13  1  0  0  0  0
 13 14  1  0  0  0  0
 13 15  1  0  0  0  0
 13 16  1  0  0  0  0
 16 17  1  0  0  0  0
 16 18  1  0  0  0  0
 16 19  1  0  0  0  0
 19 20  1  0  0  0  0
 19 21  1  0  0  0  0
 19 22  1  0  0  0  0
  1 23  1  0  0  0  0
 23 24  1  0  0  0  0
 23 25  1  0  0  0  0
 23 26  1  0  0  0  0
M  END
> <VM2 Rank>
160

> <Conf_Id>
964

> <Probability>
0.01

> <Sum Probability>
99.93

> <Delta G>
4.068

> <G>
79.534

> <E>
46.742

> <-TS>
32.792

> <U+W>
25.280

> <U>
74.925

> <W>
-49.646

> <W(PB)>
-51.851

> <W(SA)>
2.206

> <Valence>
5.130

> <Coulomb>
69.227

> <VdW>
0.568

> <VdW6>
-8.232

> <VdW12>
8.801

> <Bond>
0.274

> <Angle>
1.422

> <Pdih>
3.434

> <Idih>
0.000

> <Tether>
0.000

$$$$
VeraChem MOL file


 26 25  0  0  0  0  0  0  0  0999 V2000     
   20.3150   18.8411   25.8848 N   0  3  0  0  0  0  0  0  0  0  0  0
   20.8013   18.0868   26.3950 H   0  0  0  0  0  0  0  0  0  0  0  0
   19.4904   19.0644   26.4629 H   0  0  0  0  0  0  0  0  0  0  0  0
   19.8777   18.3332   24.5212 C   0  0  0  0  0  0  0  0  0  0  0  0
   19.3740   17.3758   24.6769 H   0  0  0  0  0  0  0  0  0  0  0  0
   20.7763   18.1506   23.9272 H   0  0  0  0  0  0  0  0  0  0  0  0
   18.9265   19.2805   23.7596 C   0  0  0  0  0  0  0  0  0  0  0  0
   18.0563   19.4958   24.3936 H   0  0  0  0  0  0  0  0  0  0  0  0
   19.4113   20.2456   23.5726 H   0  0  0  0  0  0  0  0  0  0  0  0
   18.4303   18.6768   22.4241 C   0  0  0  0  0  0  0  0  0  0  0  0
   17.7497   19.3917   21.9416 H   0  0  0  0  0  0  0  0  0  0  0  0
   17.8211   17.7899   22.6472 H   0  0  0  0  0  0  0  0  0  0  0  0
   19.5379   18.2698   21.4145 C   0  0  0  0  0  0  0  0  0  0  0  0
   20.1814   17.4867   21.8374 H   0  0  0  0  0  0  0  0  0  0  0  0
   19.0368   17.7997   20.5570 H   0  0  0  0  0  0  0  0  0  0  0  0
   20.3973   19.4426   20.8745 C   0  0  0  0  0  0  0  0  0  0  0  0
   19.7979   20.3619   20.8195 H   0  0  0  0  0  0  0  0  0  0  0  0
   20.6873   19.2101   19.8402 H   0  0  0  0  0  0  0  0  0  0  0  0
   21.6923   19.6935   21.6819 C   0  0  0  0  0  0  0  0  0  0  0  0
   22.2938   20.4778   21.2046 H   0  0  0  0  0  0  0  0  0  0  0  0
   22.3084   18.7863   21.7308 H   0  0  0  0  0  0  0  0  0  0  0  0
   21.4844   20.0194   22.7057 H   0  0  0  0  0  0  0  0  0  0  0  0
   21.2311   20.0527   25.7563 C   0  0  0  0  0  0  0  0  0  0  0  0
   21.5483   20.3675   26.7529 H   0  0  0  0  0  0  0  0  0  0  0  0
   22.1049   19.7801   25.1605 H   0  0  0  0  0  0  0  0  0  0  0  0
   20.6890   20.8661   25.2699 H   0  0  0  0  0  0  0  0  0  0  0  0
  1  2  1  0  0  0  0
  1  3  1  0  0  0  0
  1  4  1  0  0  0  0
  4  5  1  0  0  0  0
  4  6  1  0  0  0  0
  4  7  1  0  0  0  0
  7  8  1  0  0  0  0
  7  9  1  0  0  0  0
  7 10  1  0  0  0  0
 10 11  1  0  0  0  0
 10 12  1  0  0  0  0
 10 13  1  0  0  0  0
 13 14  1  0  0  0  0
 13 15  1  0  0  0  0
 13 16  1  0  0  0  0
 16 17  1  0  0  0  0
 16 18  1  0  0  0  0
 16 19  1  0  0  0  0
 19 20  1  0  0  0  0
 19 21  1  0  0  0  0
 19 22  1  0  0  0  0
  1 23  1  0  0  0  0
 23 24  1  0  0  0  0
 23 25  1  0  0  0  0
 23 26  1  0  0  0  0
M  END
> <VM2 Rank>
161

> <Conf_Id>
154

> <Probability>
0.01

> <Sum Probability>
99.93

> <Delta G>
4.070

> <G>
79.536

> <E>
46.352

> <-TS>
33.184

> <U+W>
24.891

> <U>
75.063

> <W>
-50.172

> <W(PB)>
-52.327

> <W(SA)>
2.155

> <Valence>
5.293

> <Coulomb>
69.832

> <VdW>
-0.063

> <VdW6>
-9.168

> <VdW12>
9.105

> <Bond>
0.277

> <Angle>
1.740

> <Pdih>
3.277

> <Idih>
0.000

> <Tether>
0.000

$$$$
VeraChem MOL file


 26 25  0  0  0  0  0  0  0  0999 V2000     
   19.6816   18.4895   25.6682 N   0  3  0  0  0  0  0  0  0  0  0  0
   20.4813   18.2621   26.2794 H   0  0  0  0  0  0  0  0  0  0  0  0
   19.3297   17.5817   25.3271 H   0  0  0  0  0  0  0  0  0  0  0  0
   20.1400   19.3452   24.5048 C   0  0  0  0  0  0  0  0  0  0  0  0
   20.5227   20.2855   24.9093 H   0  0  0  0  0  0  0  0  0  0  0  0
   19.2652   19.5667   23.8889 H   0  0  0  0  0  0  0  0  0  0  0  0
   21.2251   18.6719   23.6429 C   0  0  0  0  0  0  0  0  0  0  0  0
   22.0900   18.4368   24.2774 H   0  0  0  0  0  0  0  0  0  0  0  0
   20.8615   17.7118   23.2570 H   0  0  0  0  0  0  0  0  0  0  0  0
   21.6963   19.5663   22.4715 C   0  0  0  0  0  0  0  0  0  0  0  0
   22.4738   19.0329   21.9076 H   0  0  0  0  0  0  0  0  0  0  0  0
   22.1879   20.4566   22.8876 H   0  0  0  0  0  0  0  0  0  0  0  0
   20.5870   20.0320   21.4895 C   0  0  0  0  0  0  0  0  0  0  0  0
   19.8453   20.6549   22.0072 H   0  0  0  0  0  0  0  0  0  0  0  0
   21.0626   20.6987   20.7568 H   0  0  0  0  0  0  0  0  0  0  0  0
   19.8838   18.8931   20.7058 C   0  0  0  0  0  0  0  0  0  0  0  0
   20.5826   18.0641   20.5271 H   0  0  0  0  0  0  0  0  0  0  0  0
   19.6104   19.2755   19.7123 H   0  0  0  0  0  0  0  0  0  0  0  0
   18.5937   18.3721   21.3815 C   0  0  0  0  0  0  0  0  0  0  0  0
   18.1024   17.6270   20.7425 H   0  0  0  0  0  0  0  0  0  0  0  0
   17.8791   19.1885   21.5484 H   0  0  0  0  0  0  0  0  0  0  0  0
   18.7949   17.8936   22.3453 H   0  0  0  0  0  0  0  0  0  0  0  0
   18.6006   19.2199   26.4528 C   0  0  0  0  0  0  0  0  0  0  0  0
   19.0057   20.1609   26.8315 H   0  0  0  0  0  0  0  0  0  0  0  0
   17.7523   19.4202   25.7946 H   0  0  0  0  0  0  0  0  0  0  0  0
   18.2795   18.5937   27.2882 H   0  0  0  0  0  0  0  0  0  0  0  0
  1  2  1  0  0  0  0
  1  3  1  0  0  0  0
  1  4  1  0  0  0  0
  4  5  1  0  0  0  0
  4  6  1  0  0  0  0
  4  7  1  0  0  0  0
  7  8  1  0  0  0  0
  7  9  1  0  0  0  0
  7 10  1  0  0  0  0
 10 11  1  0  0  0  0
 10 12  1  0  0  0  0
 10 13  1  0  0  0  0
 13 14  1  0  0  0  0
 13 15  1  0  0  0  0
 13 16  1  0  0  0  0
 16 17  1  0  0  0  0
 16 18  1  0  0  0  0
 16 19  1  0  0  0  0
 19 20  1  0  0  0  0
 19 21  1  0  0  0  0
 19 22  1  0  0  0  0
  1 23  1  0  0  0  0
 23 24  1  0  0  0  0
 23 25  1  0  0  0  0
 23 26  1  0  0  0  0
M  END
> <VM2 Rank>
162

> <Conf_Id>
259

> <Probability>
0.01

> <Sum Probability>
99.94

> <Delta G>
4.077

> <G>
79.543

> <E>
46.664

> <-TS>
32.878

> <U+W>
25.203

> <U>
74.864

> <W>
-49.661

> <W(PB)>
-51.862

> <W(SA)>
2.201

> <Valence>
5.001

> <Coulomb>
70.004

> <VdW>
-0.141

> <VdW6>
-8.153

> <VdW12>
8.012

> <Bond>
0.241

> <Angle>
1.605

> <Pdih>
3.155

> <Idih>
0.000

> <Tether>
0.000

$$$$
VeraChem MOL file


 26 25  0  0  0  0  0  0  0  0999 V2000     
   19.8469   19.4834   26.0448 N   0  3  0  0  0  0  0  0  0  0  0  0
   19.3109   19.7701   26.8793 H   0  0  0  0  0  0  0  0  0  0  0  0
   20.3701   20.3250   25.7611 H   0  0  0  0  0  0  0  0  0  0  0  0
   18.8860   19.0672   24.9416 C   0  0  0  0  0  0  0  0  0  0  0  0
   18.1477   19.8657   24.8329 H   0  0  0  0  0  0  0  0  0  0  0  0
   18.3625   18.1705   25.2827 H   0  0  0  0  0  0  0  0  0  0  0  0
   19.5342   18.7927   23.5666 C   0  0  0  0  0  0  0  0  0  0  0  0
   20.2528   17.9675   23.6504 H   0  0  0  0  0  0  0  0  0  0  0  0
   18.7422   18.4540   22.8879 H   0  0  0  0  0  0  0  0  0  0  0  0
   20.2251   20.0422   22.9681 C   0  0  0  0  0  0  0  0  0  0  0  0
   20.9504   20.4388   23.6907 H   0  0  0  0  0  0  0  0  0  0  0  0
   19.4785   20.8342   22.8172 H   0  0  0  0  0  0  0  0  0  0  0  0
   20.9759   19.7814   21.6364 C   0  0  0  0  0  0  0  0  0  0  0  0
   21.4559   20.7239   21.3382 H   0  0  0  0  0  0  0  0  0  0  0  0
   21.7979   19.0709   21.7994 H   0  0  0  0  0  0  0  0  0  0  0  0
   20.0798   19.3053   20.4638 C   0  0  0  0  0  0  0  0  0  0  0  0
   20.4604   19.7454   19.5313 H   0  0  0  0  0  0  0  0  0  0  0  0
   19.0573   19.6899   20.5829 H   0  0  0  0  0  0  0  0  0  0  0  0
   20.0603   17.7682   20.2909 C   0  0  0  0  0  0  0  0  0  0  0  0
   19.6719   17.2572   21.1787 H   0  0  0  0  0  0  0  0  0  0  0  0
   21.0695   17.3835   20.0950 H   0  0  0  0  0  0  0  0  0  0  0  0
   19.4262   17.4856   19.4407 H   0  0  0  0  0  0  0  0  0  0  0  0
   20.7998   18.3495   26.4048 C   0  0  0  0  0  0  0  0  0  0  0  0
   20.2194   17.4785   26.7168 H   0  0  0  0  0  0  0  0  0  0  0  0
   21.4072   18.0978   25.5331 H   0  0  0  0  0  0  0  0  0  0  0  0
   21.4476   18.6732   27.2226 H   0  0  0  0  0  0  0  0  0  0  0  0
  1  2  1  0  0  0  0
  1  3  1  0  0  0  0
  1  4  1  0  0  0  0
  4  5  1  0  0  0  0
  4  6  1  0  0  0  0
  4  7  1  0  0  0  0
  7  8  1  0  0  0  0
  7  9  1  0  0  0  0
  7 10  1  0  0  0  0
 10 11  1  0  0  0  0
 10 12  1  0  0  0  0
 10 13  1  0  0  0  0
 13 14  1  0  0  0  0
 13 15  1  0  0  0  0
 13 16  1  0  0  0  0
 16 17  1  0  0  0  0
 16 18  1  0  0  0  0
 16 19  1  0  0  0  0
 19 20  1  0  0  0  0
 19 21  1  0  0  0  0
 19 22  1  0  0  0  0
  1 23  1  0  0  0  0
 23 24  1  0  0  0  0
 23 25  1  0  0  0  0
 23 26  1  0  0  0  0
M  END
> <VM2 Rank>
163

> <Conf_Id>
695

> <Probability>
0.01

> <Sum Probability>
99.95

> <Delta G>
4.096

> <G>
79.562

> <E>
46.770

> <-TS>
32.793

> <U+W>
25.308

> <U>
74.926

> <W>
-49.618

> <W(PB)>
-51.833

> <W(SA)>
2.215

> <Valence>
5.130

> <Coulomb>
69.227

> <VdW>
0.569

> <VdW6>
-8.233

> <VdW12>
8.802

> <Bond>
0.274

> <Angle>
1.422

> <Pdih>
3.434

> <Idih>
0.000

> <Tether>
0.000

$$$$
VeraChem MOL file


 26 25  0  0  0  0  0  0  0  0999 V2000     
   19.6737   19.1938   25.6753 N   0  3  0  0  0  0  0  0  0  0  0  0
   19.1480   18.4170   26.1052 H   0  0  0  0  0  0  0  0  0  0  0  0
   18.9674   19.7803   25.2060 H   0  0  0  0  0  0  0  0  0  0  0  0
   20.6588   18.6559   24.6562 C   0  0  0  0  0  0  0  0  0  0  0  0
   21.3826   18.0361   25.1915 H   0  0  0  0  0  0  0  0  0  0  0  0
   21.1950   19.5046   24.2258 H   0  0  0  0  0  0  0  0  0  0  0  0
   20.0066   17.8232   23.5325 C   0  0  0  0  0  0  0  0  0  0  0  0
   20.7987   17.4388   22.8815 H   0  0  0  0  0  0  0  0  0  0  0  0
   19.5339   16.9382   23.9787 H   0  0  0  0  0  0  0  0  0  0  0  0
   18.9459   18.5925   22.6979 C   0  0  0  0  0  0  0  0  0  0  0  0
   18.1157   18.8660   23.3626 H   0  0  0  0  0  0  0  0  0  0  0  0
   18.5064   17.9157   21.9524 H   0  0  0  0  0  0  0  0  0  0  0  0
   19.4550   19.8801   21.9921 C   0  0  0  0  0  0  0  0  0  0  0  0
   18.6099   20.5787   21.9194 H   0  0  0  0  0  0  0  0  0  0  0  0
   20.2047   20.3968   22.6042 H   0  0  0  0  0  0  0  0  0  0  0  0
   19.9994   19.6715   20.5557 C   0  0  0  0  0  0  0  0  0  0  0  0
   20.2409   20.6565   20.1322 H   0  0  0  0  0  0  0  0  0  0  0  0
   19.2092   19.2531   19.9168 H   0  0  0  0  0  0  0  0  0  0  0  0
   21.2563   18.7787   20.4686 C   0  0  0  0  0  0  0  0  0  0  0  0
   22.0255   19.1032   21.1813 H   0  0  0  0  0  0  0  0  0  0  0  0
   21.6901   18.8261   19.4615 H   0  0  0  0  0  0  0  0  0  0  0  0
   21.0126   17.7283   20.6667 H   0  0  0  0  0  0  0  0  0  0  0  0
   20.4123   19.9943   26.7386 C   0  0  0  0  0  0  0  0  0  0  0  0
   20.9340   20.8277   26.2630 H   0  0  0  0  0  0  0  0  0  0  0  0
   19.6912   20.3766   27.4646 H   0  0  0  0  0  0  0  0  0  0  0  0
   21.1326   19.3450   27.2410 H   0  0  0  0  0  0  0  0  0  0  0  0
  1  2  1  0  0  0  0
  1  3  1  0  0  0  0
  1  4  1  0  0  0  0
  4  5  1  0  0  0  0
  4  6  1  0  0  0  0
  4  7  1  0  0  0  0
  7  8  1  0  0  0  0
  7  9  1  0  0  0  0
  7 10  1  0  0  0  0
 10 11  1  0  0  0  0
 10 12  1  0  0  0  0
 10 13  1  0  0  0  0
 13 14  1  0  0  0  0
 13 15  1  0  0  0  0
 13 16  1  0  0  0  0
 16 17  1  0  0  0  0
 16 18  1  0  0  0  0
 16 19  1  0  0  0  0
 19 20  1  0  0  0  0
 19 21  1  0  0  0  0
 19 22  1  0  0  0  0
  1 23  1  0  0  0  0
 23 24  1  0  0  0  0
 23 25  1  0  0  0  0
 23 26  1  0  0  0  0
M  END
> <VM2 Rank>
164

> <Conf_Id>
461

> <Probability>
0.01

> <Sum Probability>
99.95

> <Delta G>
4.275

> <G>
79.741

> <E>
47.309

> <-TS>
32.432

> <U+W>
25.847

> <U>
75.364

> <W>
-49.517

> <W(PB)>
-51.745

> <W(SA)>
2.229

> <Valence>
5.262

> <Coulomb>
69.864

> <VdW>
0.239

> <VdW6>
-8.243

> <VdW12>
8.482

> <Bond>
0.287

> <Angle>
1.780

> <Pdih>
3.195

> <Idih>
0.000

> <Tether>
0.000

$$$$
VeraChem MOL file


 26 25  0  0  0  0  0  0  0  0999 V2000     
   20.2289   19.2500   25.6964 N   0  3  0  0  0  0  0  0  0  0  0  0
   20.8325   19.9713   25.2738 H   0  0  0  0  0  0  0  0  0  0  0  0
   20.8700   18.5923   26.1664 H   0  0  0  0  0  0  0  0  0  0  0  0
   19.4462   18.5321   24.6144 C   0  0  0  0  0  0  0  0  0  0  0  0
   18.7805   19.2582   24.1426 H   0  0  0  0  0  0  0  0  0  0  0  0
   18.8276   17.7744   25.1019 H   0  0  0  0  0  0  0  0  0  0  0  0
   20.3299   17.8578   23.5441 C   0  0  0  0  0  0  0  0  0  0  0  0
   20.9403   17.0836   24.0275 H   0  0  0  0  0  0  0  0  0  0  0  0
   19.6792   17.3260   22.8421 H   0  0  0  0  0  0  0  0  0  0  0  0
   21.2676   18.8328   22.7802 C   0  0  0  0  0  0  0  0  0  0  0  0
   21.8870   18.2649   22.0725 H   0  0  0  0  0  0  0  0  0  0  0  0
   21.9760   19.2652   23.4993 H   0  0  0  0  0  0  0  0  0  0  0  0
   20.5575   19.9942   22.0306 C   0  0  0  0  0  0  0  0  0  0  0  0
   19.6759   20.3416   22.5836 H   0  0  0  0  0  0  0  0  0  0  0  0
   21.2444   20.8517   22.0137 H   0  0  0  0  0  0  0  0  0  0  0  0
   20.1717   19.6894   20.5603 C   0  0  0  0  0  0  0  0  0  0  0  0
   21.0747   19.4472   19.9828 H   0  0  0  0  0  0  0  0  0  0  0  0
   19.7639   20.6070   20.1137 H   0  0  0  0  0  0  0  0  0  0  0  0
   19.1348   18.5580   20.3901 C   0  0  0  0  0  0  0  0  0  0  0  0
   19.5741   17.5787   20.6138 H   0  0  0  0  0  0  0  0  0  0  0  0
   18.7744   18.5222   19.3539 H   0  0  0  0  0  0  0  0  0  0  0  0
   18.2658   18.7126   21.0427 H   0  0  0  0  0  0  0  0  0  0  0  0
   19.2715   19.8756   26.7009 C   0  0  0  0  0  0  0  0  0  0  0  0
   18.6647   19.0897   27.1559 H   0  0  0  0  0  0  0  0  0  0  0  0
   19.8481   20.3899   27.4730 H   0  0  0  0  0  0  0  0  0  0  0  0
   18.6260   20.5899   26.1852 H   0  0  0  0  0  0  0  0  0  0  0  0
  1  2  1  0  0  0  0
  1  3  1  0  0  0  0
  1  4  1  0  0  0  0
  4  5  1  0  0  0  0
  4  6  1  0  0  0  0
  4  7  1  0  0  0  0
  7  8  1  0  0  0  0
  7  9  1  0  0  0  0
  7 10  1  0  0  0  0
 10 11  1  0  0  0  0
 10 12  1  0  0  0  0
 10 13  1  0  0  0  0
 13 14  1  0  0  0  0
 13 15  1  0  0  0  0
 13 16  1  0  0  0  0
 16 17  1  0  0  0  0
 16 18  1  0  0  0  0
 16 19  1  0  0  0  0
 19 20  1  0  0  0  0
 19 21  1  0  0  0  0
 19 22  1  0  0  0  0
  1 23  1  0  0  0  0
 23 24  1  0  0  0  0
 23 25  1  0  0  0  0
 23 26  1  0  0  0  0
M  END
> <VM2 Rank>
165

> <Conf_Id>
188

> <Probability>
0.01

> <Sum Probability>
99.96

> <Delta G>
4.279

> <G>
79.745

> <E>
47.306

> <-TS>
32.439

> <U+W>
25.844

> <U>
75.361

> <W>
-49.517

> <W(PB)>
-51.733

> <W(SA)>
2.216

> <Valence>
5.260

> <Coulomb>
69.861

> <VdW>
0.240

> <VdW6>
-8.240

> <VdW12>
8.480

> <Bond>
0.287

> <Angle>
1.772

> <Pdih>
3.201

> <Idih>
0.000

> <Tether>
0.000

$$$$
VeraChem MOL file


 26 25  0  0  0  0  0  0  0  0999 V2000     
   18.9809   19.3529   25.0074 N   0  3  0  0  0  0  0  0  0  0  0  0
   17.9825   19.1084   25.1022 H   0  0  0  0  0  0  0  0  0  0  0  0
   19.0181   20.0642   24.2626 H   0  0  0  0  0  0  0  0  0  0  0  0
   19.7712   18.1228   24.5896 C   0  0  0  0  0  0  0  0  0  0  0  0
   19.2593   17.6709   23.7377 H   0  0  0  0  0  0  0  0  0  0  0  0
   19.7303   17.4085   25.4158 H   0  0  0  0  0  0  0  0  0  0  0  0
   21.2451   18.3874   24.2131 C   0  0  0  0  0  0  0  0  0  0  0  0
   21.7856   18.7152   25.1105 H   0  0  0  0  0  0  0  0  0  0  0  0
   21.7077   17.4358   23.9200 H   0  0  0  0  0  0  0  0  0  0  0  0
   21.4660   19.4319   23.0862 C   0  0  0  0  0  0  0  0  0  0  0  0
   22.5497   19.5929   23.0026 H   0  0  0  0  0  0  0  0  0  0  0  0
   21.0498   20.4067   23.3730 H   0  0  0  0  0  0  0  0  0  0  0  0
   20.9448   19.0097   21.6871 C   0  0  0  0  0  0  0  0  0  0  0  0
   21.5480   19.5300   20.9301 H   0  0  0  0  0  0  0  0  0  0  0  0
   21.1210   17.9370   21.5278 H   0  0  0  0  0  0  0  0  0  0  0  0
   19.4573   19.3522   21.4292 C   0  0  0  0  0  0  0  0  0  0  0  0
   19.2860   20.4224   21.6107 H   0  0  0  0  0  0  0  0  0  0  0  0
   18.8063   18.8037   22.1188 H   0  0  0  0  0  0  0  0  0  0  0  0
   19.0404   19.0116   19.9825 C   0  0  0  0  0  0  0  0  0  0  0  0
   19.1718   17.9415   19.7756 H   0  0  0  0  0  0  0  0  0  0  0  0
   19.6380   19.5762   19.2550 H   0  0  0  0  0  0  0  0  0  0  0  0
   17.9844   19.2597   19.8146 H   0  0  0  0  0  0  0  0  0  0  0  0
   19.5023   19.9215   26.3219 C   0  0  0  0  0  0  0  0  0  0  0  0
   19.4368   19.1536   27.0957 H   0  0  0  0  0  0  0  0  0  0  0  0
   20.5414   20.2315   26.1940 H   0  0  0  0  0  0  0  0  0  0  0  0
   18.8938   20.7833   26.6051 H   0  0  0  0  0  0  0  0  0  0  0  0
  1  2  1  0  0  0  0
  1  3  1  0  0  0  0
  1  4  1  0  0  0  0
  4  5  1  0  0  0  0
  4  6  1  0  0  0  0
  4  7  1  0  0  0  0
  7  8  1  0  0  0  0
  7  9  1  0  0  0  0
  7 10  1  0  0  0  0
 10 11  1  0  0  0  0
 10 12  1  0  0  0  0
 10 13  1  0  0  0  0
 13 14  1  0  0  0  0
 13 15  1  0  0  0  0
 13 16  1  0  0  0  0
 16 17  1  0  0  0  0
 16 18  1  0  0  0  0
 16 19  1  0  0  0  0
 19 20  1  0  0  0  0
 19 21  1  0  0  0  0
 19 22  1  0  0  0  0
  1 23  1  0  0  0  0
 23 24  1  0  0  0  0
 23 25  1  0  0  0  0
 23 26  1  0  0  0  0
M  END
> <VM2 Rank>
166

> <Conf_Id>
1093

> <Probability>
0.01

> <Sum Probability>
99.96

> <Delta G>
4.290

> <G>
79.756

> <E>
46.886

> <-TS>
32.869

> <U+W>
25.424

> <U>
75.499

> <W>
-50.074

> <W(PB)>
-52.287

> <W(SA)>
2.213

> <Valence>
4.692

> <Coulomb>
70.717

> <VdW>
0.090

> <VdW6>
-8.741

> <VdW12>
8.830

> <Bond>
0.270

> <Angle>
1.624

> <Pdih>
2.799

> <Idih>
0.000

> <Tether>
0.000

$$$$
VeraChem MOL file


 26 25  0  0  0  0  0  0  0  0999 V2000     
   20.9194   19.5517   25.0760 N   0  3  0  0  0  0  0  0  0  0  0  0
   20.7911   20.2460   24.3254 H   0  0  0  0  0  0  0  0  0  0  0  0
   21.9375   19.5138   25.2423 H   0  0  0  0  0  0  0  0  0  0  0  0
   20.4260   18.1899   24.6128 C   0  0  0  0  0  0  0  0  0  0  0  0
   20.5529   17.4929   25.4449 H   0  0  0  0  0  0  0  0  0  0  0  0
   21.0773   17.8573   23.8021 H   0  0  0  0  0  0  0  0  0  0  0  0
   18.9591   18.1530   24.1321 C   0  0  0  0  0  0  0  0  0  0  0  0
   18.7206   17.1295   23.8143 H   0  0  0  0  0  0  0  0  0  0  0  0
   18.3020   18.3581   24.9871 H   0  0  0  0  0  0  0  0  0  0  0  0
   18.6106   19.1391   22.9851 C   0  0  0  0  0  0  0  0  0  0  0  0
   18.7995   20.1760   23.2932 H   0  0  0  0  0  0  0  0  0  0  0  0
   17.5253   19.0778   22.8247 H   0  0  0  0  0  0  0  0  0  0  0  0
   19.3032   18.8413   21.6290 C   0  0  0  0  0  0  0  0  0  0  0  0
   19.3596   17.7563   21.4654 H   0  0  0  0  0  0  0  0  0  0  0  0
   18.6615   19.2340   20.8279 H   0  0  0  0  0  0  0  0  0  0  0  0
   20.7047   19.4801   21.4734 C   0  0  0  0  0  0  0  0  0  0  0  0
   21.4034   19.0698   22.2107 H   0  0  0  0  0  0  0  0  0  0  0  0
   20.6424   20.5614   21.6588 H   0  0  0  0  0  0  0  0  0  0  0  0
   21.2821   19.2415   20.0619 C   0  0  0  0  0  0  0  0  0  0  0  0
   21.3851   18.1685   19.8538 H   0  0  0  0  0  0  0  0  0  0  0  0
   22.2751   19.6996   19.9666 H   0  0  0  0  0  0  0  0  0  0  0  0
   20.6349   19.6786   19.2903 H   0  0  0  0  0  0  0  0  0  0  0  0
   20.2029   19.9934   26.3467 C   0  0  0  0  0  0  0  0  0  0  0  0
   20.6027   20.9585   26.6656 H   0  0  0  0  0  0  0  0  0  0  0  0
   19.1341   20.0873   26.1441 H   0  0  0  0  0  0  0  0  0  0  0  0
   20.3682   19.2491   27.1287 H   0  0  0  0  0  0  0  0  0  0  0  0
  1  2  1  0  0  0  0
  1  3  1  0  0  0  0
  1  4  1  0  0  0  0
  4  5  1  0  0  0  0
  4  6  1  0  0  0  0
  4  7  1  0  0  0  0
  7  8  1  0  0  0  0
  7  9  1  0  0  0  0
  7 10  1  0  0  0  0
 10 11  1  0  0  0  0
 10 12  1  0  0  0  0
 10 13  1  0  0  0  0
 13 14  1  0  0  0  0
 13 15  1  0  0  0  0
 13 16  1  0  0  0  0
 16 17  1  0  0  0  0
 16 18  1  0  0  0  0
 16 19  1  0  0  0  0
 19 20  1  0  0  0  0
 19 21  1  0  0  0  0
 19 22  1  0  0  0  0
  1 23  1  0  0  0  0
 23 24  1  0  0  0  0
 23 25  1  0  0  0  0
 23 26  1  0  0  0  0
M  END
> <VM2 Rank>
167

> <Conf_Id>
229

> <Probability>
0.00

> <Sum Probability>
99.97

> <Delta G>
4.389

> <G>
79.855

> <E>
46.985

> <-TS>
32.870

> <U+W>
25.523

> <U>
75.499

> <W>
-49.976

> <W(PB)>
-52.163

> <W(SA)>
2.187

> <Valence>
4.692

> <Coulomb>
70.717

> <VdW>
0.090

> <VdW6>
-8.740

> <VdW12>
8.830

> <Bond>
0.270

> <Angle>
1.624

> <Pdih>
2.799

> <Idih>
0.000

> <Tether>
0.000

$$$$
VeraChem MOL file


 26 25  0  0  0  0  0  0  0  0999 V2000     
   20.1354   19.2910   25.5460 N   0  3  0  0  0  0  0  0  0  0  0  0
   20.8938   19.8827   25.1751 H   0  0  0  0  0  0  0  0  0  0  0  0
   20.5964   18.6038   26.1623 H   0  0  0  0  0  0  0  0  0  0  0  0
   19.4306   18.5801   24.4077 C   0  0  0  0  0  0  0  0  0  0  0  0
   18.9495   19.3384   23.7855 H   0  0  0  0  0  0  0  0  0  0  0  0
   18.6501   17.9505   24.8424 H   0  0  0  0  0  0  0  0  0  0  0  0
   20.3664   17.7134   23.5403 C   0  0  0  0  0  0  0  0  0  0  0  0
   20.8202   16.9371   24.1704 H   0  0  0  0  0  0  0  0  0  0  0  0
   19.7724   17.1755   22.7917 H   0  0  0  0  0  0  0  0  0  0  0  0
   21.4898   18.5144   22.8346 C   0  0  0  0  0  0  0  0  0  0  0  0
   22.0767   17.8256   22.2115 H   0  0  0  0  0  0  0  0  0  0  0  0
   22.1898   18.8890   23.5935 H   0  0  0  0  0  0  0  0  0  0  0  0
   21.0220   19.7111   21.9621 C   0  0  0  0  0  0  0  0  0  0  0  0
   20.4915   20.4554   22.5708 H   0  0  0  0  0  0  0  0  0  0  0  0
   21.9263   20.2224   21.6039 H   0  0  0  0  0  0  0  0  0  0  0  0
   20.1760   19.3272   20.7201 C   0  0  0  0  0  0  0  0  0  0  0  0
   20.4991   18.3548   20.3234 H   0  0  0  0  0  0  0  0  0  0  0  0
   20.3798   20.0588   19.9256 H   0  0  0  0  0  0  0  0  0  0  0  0
   18.6507   19.3226   20.9753 C   0  0  0  0  0  0  0  0  0  0  0  0
   18.3520   18.5451   21.6857 H   0  0  0  0  0  0  0  0  0  0  0  0
   18.1082   19.1353   20.0396 H   0  0  0  0  0  0  0  0  0  0  0  0
   18.3132   20.2913   21.3660 H   0  0  0  0  0  0  0  0  0  0  0  0
   19.1370   20.1302   26.3308 C   0  0  0  0  0  0  0  0  0  0  0  0
   19.6579   20.6372   27.1461 H   0  0  0  0  0  0  0  0  0  0  0  0
   18.6868   20.8692   25.6644 H   0  0  0  0  0  0  0  0  0  0  0  0
   18.3615   19.4777   26.7380 H   0  0  0  0  0  0  0  0  0  0  0  0
  1  2  1  0  0  0  0
  1  3  1  0  0  0  0
  1  4  1  0  0  0  0
  4  5  1  0  0  0  0
  4  6  1  0  0  0  0
  4  7  1  0  0  0  0
  7  8  1  0  0  0  0
  7  9  1  0  0  0  0
  7 10  1  0  0  0  0
 10 11  1  0  0  0  0
 10 12  1  0  0  0  0
 10 13  1  0  0  0  0
 13 14  1  0  0  0  0
 13 15  1  0  0  0  0
 13 16  1  0  0  0  0
 16 17  1  0  0  0  0
 16 18  1  0  0  0  0
 16 19  1  0  0  0  0
 19 20  1  0  0  0  0
 19 21  1  0  0  0  0
 19 22  1  0  0  0  0
  1 23  1  0  0  0  0
 23 24  1  0  0  0  0
 23 25  1  0  0  0  0
 23 26  1  0  0  0  0
M  END
> <VM2 Rank>
168

> <Conf_Id>
462

> <Probability>
0.00

> <Sum Probability>
99.97

> <Delta G>
4.478

> <G>
79.944

> <E>
46.916

> <-TS>
33.028

> <U+W>
25.454

> <U>
75.078

> <W>
-49.624

> <W(PB)>
-51.822

> <W(SA)>
2.198

> <Valence>
5.122

> <Coulomb>
70.113

> <VdW>
-0.157

> <VdW6>
-8.845

> <VdW12>
8.688

> <Bond>
0.261

> <Angle>
1.747

> <Pdih>
3.115

> <Idih>
0.000

> <Tether>
0.000

$$$$
VeraChem MOL file


 26 25  0  0  0  0  0  0  0  0999 V2000     
   19.7664   19.2529   25.5331 N   0  3  0  0  0  0  0  0  0  0  0  0
   19.4131   18.4817   26.1205 H   0  0  0  0  0  0  0  0  0  0  0  0
   18.9311   19.6804   25.1058 H   0  0  0  0  0  0  0  0  0  0  0  0
   20.6792   18.7090   24.4520 C   0  0  0  0  0  0  0  0  0  0  0  0
   21.5392   18.2484   24.9447 H   0  0  0  0  0  0  0  0  0  0  0  0
   21.0379   19.5539   23.8595 H   0  0  0  0  0  0  0  0  0  0  0  0
   20.0026   17.6760   23.5274 C   0  0  0  0  0  0  0  0  0  0  0  0
   20.7447   17.2759   22.8261 H   0  0  0  0  0  0  0  0  0  0  0  0
   19.6736   16.8190   24.1298 H   0  0  0  0  0  0  0  0  0  0  0  0
   18.7918   18.2364   22.7391 C   0  0  0  0  0  0  0  0  0  0  0  0
   17.9789   18.4551   23.4444 H   0  0  0  0  0  0  0  0  0  0  0  0
   18.4026   17.4469   22.0815 H   0  0  0  0  0  0  0  0  0  0  0  0
   19.0659   19.5094   21.8927 C   0  0  0  0  0  0  0  0  0  0  0  0
   18.1037   19.8283   21.4684 H   0  0  0  0  0  0  0  0  0  0  0  0
   19.3896   20.3419   22.5316 H   0  0  0  0  0  0  0  0  0  0  0  0
   20.0571   19.3148   20.7158 C   0  0  0  0  0  0  0  0  0  0  0  0
   19.7646   19.9951   19.9036 H   0  0  0  0  0  0  0  0  0  0  0  0
   19.9676   18.2997   20.3047 H   0  0  0  0  0  0  0  0  0  0  0  0
   21.5297   19.6194   21.0771 C   0  0  0  0  0  0  0  0  0  0  0  0
   22.1631   19.5531   20.1830 H   0  0  0  0  0  0  0  0  0  0  0  0
   21.9301   18.9142   21.8124 H   0  0  0  0  0  0  0  0  0  0  0  0
   21.6345   20.6338   21.4831 H   0  0  0  0  0  0  0  0  0  0  0  0
   20.5154   20.2721   26.3799 C   0  0  0  0  0  0  0  0  0  0  0  0
   20.8510   21.0923   25.7414 H   0  0  0  0  0  0  0  0  0  0  0  0
   19.8463   20.6564   27.1531 H   0  0  0  0  0  0  0  0  0  0  0  0
   21.3771   19.7885   26.8449 H   0  0  0  0  0  0  0  0  0  0  0  0
  1  2  1  0  0  0  0
  1  3  1  0  0  0  0
  1  4  1  0  0  0  0
  4  5  1  0  0  0  0
  4  6  1  0  0  0  0
  4  7  1  0  0  0  0
  7  8  1  0  0  0  0
  7  9  1  0  0  0  0
  7 10  1  0  0  0  0
 10 11  1  0  0  0  0
 10 12  1  0  0  0  0
 10 13  1  0  0  0  0
 13 14  1  0  0  0  0
 13 15  1  0  0  0  0
 13 16  1  0  0  0  0
 16 17  1  0  0  0  0
 16 18  1  0  0  0  0
 16 19  1  0  0  0  0
 19 20  1  0  0  0  0
 19 21  1  0  0  0  0
 19 22  1  0  0  0  0
  1 23  1  0  0  0  0
 23 24  1  0  0  0  0
 23 25  1  0  0  0  0
 23 26  1  0  0  0  0
M  END
> <VM2 Rank>
169

> <Conf_Id>
448

> <Probability>
0.00

> <Sum Probability>
99.98

> <Delta G>
4.535

> <G>
80.001

> <E>
46.972

> <-TS>
33.028

> <U+W>
25.510

> <U>
75.077

> <W>
-49.567

> <W(PB)>
-51.764

> <W(SA)>
2.197

> <Valence>
5.122

> <Coulomb>
70.113

> <VdW>
-0.158

> <VdW6>
-8.844

> <VdW12>
8.687

> <Bond>
0.261

> <Angle>
1.747

> <Pdih>
3.115

> <Idih>
0.000

> <Tether>
0.000

$$$$
VeraChem MOL file


 26 25  0  0  0  0  0  0  0  0999 V2000     
   19.3008   18.7586   25.6033 N   0  3  0  0  0  0  0  0  0  0  0  0
   18.7258   18.0242   26.0456 H   0  0  0  0  0  0  0  0  0  0  0  0
   18.6291   19.3700   25.1158 H   0  0  0  0  0  0  0  0  0  0  0  0
   20.2510   18.1268   24.5985 C   0  0  0  0  0  0  0  0  0  0  0  0
   19.6587   17.4696   23.9576 H   0  0  0  0  0  0  0  0  0  0  0  0
   20.9545   17.5026   25.1552 H   0  0  0  0  0  0  0  0  0  0  0  0
   21.0347   19.1248   23.7153 C   0  0  0  0  0  0  0  0  0  0  0  0
   21.7184   19.7036   24.3496 H   0  0  0  0  0  0  0  0  0  0  0  0
   21.6776   18.5544   23.0368 H   0  0  0  0  0  0  0  0  0  0  0  0
   20.1398   20.1085   22.9126 C   0  0  0  0  0  0  0  0  0  0  0  0
   20.7757   20.8112   22.3570 H   0  0  0  0  0  0  0  0  0  0  0  0
   19.5825   20.7283   23.6276 H   0  0  0  0  0  0  0  0  0  0  0  0
   19.1264   19.4451   21.9392 C   0  0  0  0  0  0  0  0  0  0  0  0
   18.7516   18.4970   22.3447 H   0  0  0  0  0  0  0  0  0  0  0  0
   18.2467   20.1000   21.8725 H   0  0  0  0  0  0  0  0  0  0  0  0
   19.6479   19.2310   20.4950 C   0  0  0  0  0  0  0  0  0  0  0  0
   19.9204   20.1993   20.0523 H   0  0  0  0  0  0  0  0  0  0  0  0
   18.8219   18.8406   19.8842 H   0  0  0  0  0  0  0  0  0  0  0  0
   20.8437   18.2606   20.3824 C   0  0  0  0  0  0  0  0  0  0  0  0
   21.0433   18.0199   19.3303 H   0  0  0  0  0  0  0  0  0  0  0  0
   20.6435   17.3192   20.9102 H   0  0  0  0  0  0  0  0  0  0  0  0
   21.7578   18.7066   20.7918 H   0  0  0  0  0  0  0  0  0  0  0  0
   20.0636   19.5346   26.6707 C   0  0  0  0  0  0  0  0  0  0  0  0
   20.6211   20.3456   26.1978 H   0  0  0  0  0  0  0  0  0  0  0  0
   19.3521   19.9478   27.3891 H   0  0  0  0  0  0  0  0  0  0  0  0
   20.7531   18.8589   27.1813 H   0  0  0  0  0  0  0  0  0  0  0  0
  1  2  1  0  0  0  0
  1  3  1  0  0  0  0
  1  4  1  0  0  0  0
  4  5  1  0  0  0  0
  4  6  1  0  0  0  0
  4  7  1  0  0  0  0
  7  8  1  0  0  0  0
  7  9  1  0  0  0  0
  7 10  1  0  0  0  0
 10 11  1  0  0  0  0
 10 12  1  0  0  0  0
 10 13  1  0  0  0  0
 13 14  1  0  0  0  0
 13 15  1  0  0  0  0
 13 16  1  0  0  0  0
 16 17  1  0  0  0  0
 16 18  1  0  0  0  0
 16 19  1  0  0  0  0
 19 20  1  0  0  0  0
 19 21  1  0  0  0  0
 19 22  1  0  0  0  0
  1 23  1  0  0  0  0
 23 24  1  0  0  0  0
 23 25  1  0  0  0  0
 23 26  1  0  0  0  0
M  END
> <VM2 Rank>
170

> <Conf_Id>
1109

> <Probability>
0.00

> <Sum Probability>
99.98

> <Delta G>
4.582

> <G>
80.048

> <E>
47.259

> <-TS>
32.789

> <U+W>
25.797

> <U>
75.785

> <W>
-49.988

> <W(PB)>
-52.187

> <W(SA)>
2.200

> <Valence>
5.519

> <Coulomb>
69.821

> <VdW>
0.444

> <VdW6>
-9.101

> <VdW12>
9.545

> <Bond>
0.326

> <Angle>
1.864

> <Pdih>
3.329

> <Idih>
0.000

> <Tether>
0.000

$$$$
VeraChem MOL file


 26 25  0  0  0  0  0  0  0  0999 V2000     
   20.5300   19.1461   25.3554 N   0  3  0  0  0  0  0  0  0  0  0  0
   21.3447   18.8891   24.7792 H   0  0  0  0  0  0  0  0  0  0  0  0
   20.4392   18.3940   26.0560 H   0  0  0  0  0  0  0  0  0  0  0  0
   19.2818   19.2114   24.4966 C   0  0  0  0  0  0  0  0  0  0  0  0
   19.3980   20.0420   23.7990 H   0  0  0  0  0  0  0  0  0  0  0  0
   18.4423   19.4397   25.1582 H   0  0  0  0  0  0  0  0  0  0  0  0
   18.9854   17.9061   23.7290 C   0  0  0  0  0  0  0  0  0  0  0  0
   18.9369   17.0848   24.4562 H   0  0  0  0  0  0  0  0  0  0  0  0
   17.9854   17.9678   23.2798 H   0  0  0  0  0  0  0  0  0  0  0  0
   20.0271   17.5518   22.6337 C   0  0  0  0  0  0  0  0  0  0  0  0
   19.9977   16.4634   22.4855 H   0  0  0  0  0  0  0  0  0  0  0  0
   21.0465   17.7672   22.9770 H   0  0  0  0  0  0  0  0  0  0  0  0
   19.7683   18.2087   21.2505 C   0  0  0  0  0  0  0  0  0  0  0  0
   20.4944   17.8035   20.5322 H   0  0  0  0  0  0  0  0  0  0  0  0
   18.7823   17.8901   20.8852 H   0  0  0  0  0  0  0  0  0  0  0  0
   19.8393   19.7553   21.2009 C   0  0  0  0  0  0  0  0  0  0  0  0
   19.0453   20.1935   21.8185 H   0  0  0  0  0  0  0  0  0  0  0  0
   19.6236   20.0785   20.1728 H   0  0  0  0  0  0  0  0  0  0  0  0
   21.2165   20.3229   21.6141 C   0  0  0  0  0  0  0  0  0  0  0  0
   22.0178   19.9000   20.9945 H   0  0  0  0  0  0  0  0  0  0  0  0
   21.4473   20.1079   22.6635 H   0  0  0  0  0  0  0  0  0  0  0  0
   21.2361   21.4132   21.4883 H   0  0  0  0  0  0  0  0  0  0  0  0
   20.7596   20.4876   26.0370 C   0  0  0  0  0  0  0  0  0  0  0  0
   21.6602   20.4274   26.6521 H   0  0  0  0  0  0  0  0  0  0  0  0
   20.8836   21.2608   25.2756 H   0  0  0  0  0  0  0  0  0  0  0  0
   19.8983   20.7224   26.6662 H   0  0  0  0  0  0  0  0  0  0  0  0
  1  2  1  0  0  0  0
  1  3  1  0  0  0  0
  1  4  1  0  0  0  0
  4  5  1  0  0  0  0
  4  6  1  0  0  0  0
  4  7  1  0  0  0  0
  7  8  1  0  0  0  0
  7  9  1  0  0  0  0
  7 10  1  0  0  0  0
 10 11  1  0  0  0  0
 10 12  1  0  0  0  0
 10 13  1  0  0  0  0
 13 14  1  0  0  0  0
 13 15  1  0  0  0  0
 13 16  1  0  0  0  0
 16 17  1  0  0  0  0
 16 18  1  0  0  0  0
 16 19  1  0  0  0  0
 19 20  1  0  0  0  0
 19 21  1  0  0  0  0
 19 22  1  0  0  0  0
  1 23  1  0  0  0  0
 23 24  1  0  0  0  0
 23 25  1  0  0  0  0
 23 26  1  0  0  0  0
M  END
> <VM2 Rank>
171

> <Conf_Id>
810

> <Probability>
0.00

> <Sum Probability>
99.98

> <Delta G>
4.582

> <G>
80.048

> <E>
46.787

> <-TS>
33.262

> <U+W>
25.325

> <U>
75.173

> <W>
-49.848

> <W(PB)>
-52.020

> <W(SA)>
2.172

> <Valence>
4.878

> <Coulomb>
70.674

> <VdW>
-0.379

> <VdW6>
-9.130

> <VdW12>
8.751

> <Bond>
0.264

> <Angle>
1.818

> <Pdih>
2.796

> <Idih>
0.000

> <Tether>
0.000

$$$$
VeraChem MOL file


 26 25  0  0  0  0  0  0  0  0999 V2000     
   19.5438   18.3563   25.3790 N   0  3  0  0  0  0  0  0  0  0  0  0
   19.3810   17.3736   25.6499 H   0  0  0  0  0  0  0  0  0  0  0  0
   18.6600   18.6687   24.9503 H   0  0  0  0  0  0  0  0  0  0  0  0
   20.6683   18.4250   24.3581 C   0  0  0  0  0  0  0  0  0  0  0  0
   20.4462   17.6915   23.5794 H   0  0  0  0  0  0  0  0  0  0  0  0
   21.5900   18.1160   24.8577 H   0  0  0  0  0  0  0  0  0  0  0  0
   20.8728   19.8093   23.7021 C   0  0  0  0  0  0  0  0  0  0  0  0
   21.1705   20.5342   24.4704 H   0  0  0  0  0  0  0  0  0  0  0  0
   21.7195   19.7585   23.0072 H   0  0  0  0  0  0  0  0  0  0  0  0
   19.6222   20.3435   22.9595 C   0  0  0  0  0  0  0  0  0  0  0  0
   19.8694   21.3116   22.5026 H   0  0  0  0  0  0  0  0  0  0  0  0
   18.8384   20.5608   23.6975 H   0  0  0  0  0  0  0  0  0  0  0  0
   19.0306   19.4073   21.8708 C   0  0  0  0  0  0  0  0  0  0  0  0
   18.7083   18.4531   22.3080 H   0  0  0  0  0  0  0  0  0  0  0  0
   18.1105   19.8818   21.5021 H   0  0  0  0  0  0  0  0  0  0  0  0
   19.9527   19.1570   20.6490 C   0  0  0  0  0  0  0  0  0  0  0  0
   20.5675   20.0449   20.4460 H   0  0  0  0  0  0  0  0  0  0  0  0
   19.3189   19.0208   19.7615 H   0  0  0  0  0  0  0  0  0  0  0  0
   20.8484   17.9036   20.7844 C   0  0  0  0  0  0  0  0  0  0  0  0
   21.5806   18.0031   21.5921 H   0  0  0  0  0  0  0  0  0  0  0  0
   21.4081   17.7329   19.8556 H   0  0  0  0  0  0  0  0  0  0  0  0
   20.2454   17.0070   20.9776 H   0  0  0  0  0  0  0  0  0  0  0  0
   19.8691   19.1879   26.6142 C   0  0  0  0  0  0  0  0  0  0  0  0
   19.9791   20.2352   26.3255 H   0  0  0  0  0  0  0  0  0  0  0  0
   19.0552   19.0893   27.3359 H   0  0  0  0  0  0  0  0  0  0  0  0
   20.7997   18.8251   27.0558 H   0  0  0  0  0  0  0  0  0  0  0  0
  1  2  1  0  0  0  0
  1  3  1  0  0  0  0
  1  4  1  0  0  0  0
  4  5  1  0  0  0  0
  4  6  1  0  0  0  0
  4  7  1  0  0  0  0
  7  8  1  0  0  0  0
  7  9  1  0  0  0  0
  7 10  1  0  0  0  0
 10 11  1  0  0  0  0
 10 12  1  0  0  0  0
 10 13  1  0  0  0  0
 13 14  1  0  0  0  0
 13 15  1  0  0  0  0
 13 16  1  0  0  0  0
 16 17  1  0  0  0  0
 16 18  1  0  0  0  0
 16 19  1  0  0  0  0
 19 20  1  0  0  0  0
 19 21  1  0  0  0  0
 19 22  1  0  0  0  0
  1 23  1  0  0  0  0
 23 24  1  0  0  0  0
 23 25  1  0  0  0  0
 23 26  1  0  0  0  0
M  END
> <VM2 Rank>
172

> <Conf_Id>
281

> <Probability>
0.00

> <Sum Probability>
99.99

> <Delta G>
4.653

> <G>
80.119

> <E>
46.866

> <-TS>
33.253

> <U+W>
25.404

> <U>
75.588

> <W>
-50.184

> <W(PB)>
-52.344

> <W(SA)>
2.160

> <Valence>
5.385

> <Coulomb>
70.118

> <VdW>
0.085

> <VdW6>
-9.606

> <VdW12>
9.691

> <Bond>
0.301

> <Angle>
1.864

> <Pdih>
3.219

> <Idih>
0.000

> <Tether>
0.000

$$$$
VeraChem MOL file


 26 25  0  0  0  0  0  0  0  0999 V2000     
   20.6506   18.4060   24.9534 N   0  3  0  0  0  0  0  0  0  0  0  0
   20.8654   18.1401   23.9815 H   0  0  0  0  0  0  0  0  0  0  0  0
   20.8165   17.5562   25.5159 H   0  0  0  0  0  0  0  0  0  0  0  0
   19.1921   18.8174   25.0696 C   0  0  0  0  0  0  0  0  0  0  0  0
   19.0544   19.2236   26.0749 H   0  0  0  0  0  0  0  0  0  0  0  0
   18.5806   17.9153   24.9869 H   0  0  0  0  0  0  0  0  0  0  0  0
   18.7078   19.8518   24.0278 C   0  0  0  0  0  0  0  0  0  0  0  0
   17.8052   20.3288   24.4318 H   0  0  0  0  0  0  0  0  0  0  0  0
   19.4396   20.6610   23.9166 H   0  0  0  0  0  0  0  0  0  0  0  0
   18.3396   19.2445   22.6472 C   0  0  0  0  0  0  0  0  0  0  0  0
   17.9308   20.0427   22.0122 H   0  0  0  0  0  0  0  0  0  0  0  0
   17.5197   18.5262   22.7858 H   0  0  0  0  0  0  0  0  0  0  0  0
   19.4884   18.5402   21.8810 C   0  0  0  0  0  0  0  0  0  0  0  0
   19.8313   17.6604   22.4389 H   0  0  0  0  0  0  0  0  0  0  0  0
   19.0810   18.1482   20.9387 H   0  0  0  0  0  0  0  0  0  0  0  0
   20.6795   19.4720   21.5531 C   0  0  0  0  0  0  0  0  0  0  0  0
   21.1175   19.8794   22.4727 H   0  0  0  0  0  0  0  0  0  0  0  0
   20.3233   20.3317   20.9685 H   0  0  0  0  0  0  0  0  0  0  0  0
   21.7777   18.7336   20.7589 C   0  0  0  0  0  0  0  0  0  0  0  0
   21.3865   18.3497   19.8076 H   0  0  0  0  0  0  0  0  0  0  0  0
   22.1786   17.8863   21.3300 H   0  0  0  0  0  0  0  0  0  0  0  0
   22.6116   19.4100   20.5305 H   0  0  0  0  0  0  0  0  0  0  0  0
   21.5724   19.5244   25.4259 C   0  0  0  0  0  0  0  0  0  0  0  0
   21.4230   20.4067   24.8007 H   0  0  0  0  0  0  0  0  0  0  0  0
   21.3399   19.7645   26.4657 H   0  0  0  0  0  0  0  0  0  0  0  0
   22.6092   19.1898   25.3483 H   0  0  0  0  0  0  0  0  0  0  0  0
  1  2  1  0  0  0  0
  1  3  1  0  0  0  0
  1  4  1  0  0  0  0
  4  5  1  0  0  0  0
  4  6  1  0  0  0  0
  4  7  1  0  0  0  0
  7  8  1  0  0  0  0
  7  9  1  0  0  0  0
  7 10  1  0  0  0  0
 10 11  1  0  0  0  0
 10 12  1  0  0  0  0
 10 13  1  0  0  0  0
 13 14  1  0  0  0  0
 13 15  1  0  0  0  0
 13 16  1  0  0  0  0
 16 17  1  0  0  0  0
 16 18  1  0  0  0  0
 16 19  1  0  0  0  0
 19 20  1  0  0  0  0
 19 21  1  0  0  0  0
 19 22  1  0  0  0  0
  1 23  1  0  0  0  0
 23 24  1  0  0  0  0
 23 25  1  0  0  0  0
 23 26  1  0  0  0  0
M  END
> <VM2 Rank>
173

> <Conf_Id>
1094

> <Probability>
0.00

> <Sum Probability>
99.99

> <Delta G>
4.879

> <G>
80.345

> <E>
47.032

> <-TS>
33.313

> <U+W>
25.571

> <U>
74.993

> <W>
-49.423

> <W(PB)>
-51.584

> <W(SA)>
2.161

> <Valence>
4.235

> <Coulomb>
71.017

> <VdW>
-0.259

> <VdW6>
-9.385

> <VdW12>
9.126

> <Bond>
0.262

> <Angle>
1.598

> <Pdih>
2.376

> <Idih>
0.000

> <Tether>
0.000

$$$$
VeraChem MOL file


 26 25  0  0  0  0  0  0  0  0999 V2000     
   20.6779   18.6679   25.5066 N   0  3  0  0  0  0  0  0  0  0  0  0
   20.9597   17.8848   24.8987 H   0  0  0  0  0  0  0  0  0  0  0  0
   20.9754   18.3911   26.4555 H   0  0  0  0  0  0  0  0  0  0  0  0
   19.1683   18.8373   25.4827 C   0  0  0  0  0  0  0  0  0  0  0  0
   18.9396   19.8750   25.7378 H   0  0  0  0  0  0  0  0  0  0  0  0
   18.7712   18.2067   26.2823 H   0  0  0  0  0  0  0  0  0  0  0  0
   18.4546   18.4412   24.1682 C   0  0  0  0  0  0  0  0  0  0  0  0
   18.6174   17.3759   23.9581 H   0  0  0  0  0  0  0  0  0  0  0  0
   17.3760   18.5466   24.3451 H   0  0  0  0  0  0  0  0  0  0  0  0
   18.8250   19.2997   22.9320 C   0  0  0  0  0  0  0  0  0  0  0  0
   19.0432   20.3303   23.2434 H   0  0  0  0  0  0  0  0  0  0  0  0
   17.9454   19.3625   22.2764 H   0  0  0  0  0  0  0  0  0  0  0  0
   19.9980   18.7155   22.1068 C   0  0  0  0  0  0  0  0  0  0  0  0
   20.8815   18.5727   22.7392 H   0  0  0  0  0  0  0  0  0  0  0  0
   19.7192   17.7206   21.7328 H   0  0  0  0  0  0  0  0  0  0  0  0
   20.3684   19.6247   20.9140 C   0  0  0  0  0  0  0  0  0  0  0  0
   20.6465   20.6228   21.2806 H   0  0  0  0  0  0  0  0  0  0  0  0
   19.4930   19.7589   20.2633 H   0  0  0  0  0  0  0  0  0  0  0  0
   21.5349   19.0398   20.0895 C   0  0  0  0  0  0  0  0  0  0  0  0
   22.4366   18.9271   20.7054 H   0  0  0  0  0  0  0  0  0  0  0  0
   21.7829   19.6987   19.2472 H   0  0  0  0  0  0  0  0  0  0  0  0
   21.2747   18.0547   19.6808 H   0  0  0  0  0  0  0  0  0  0  0  0
   21.3809   19.9639   25.1172 C   0  0  0  0  0  0  0  0  0  0  0  0
   22.4616   19.8093   25.1544 H   0  0  0  0  0  0  0  0  0  0  0  0
   21.0849   20.2510   24.1070 H   0  0  0  0  0  0  0  0  0  0  0  0
   21.0975   20.7494   25.8210 H   0  0  0  0  0  0  0  0  0  0  0  0
  1  2  1  0  0  0  0
  1  3  1  0  0  0  0
  1  4  1  0  0  0  0
  4  5  1  0  0  0  0
  4  6  1  0  0  0  0
  4  7  1  0  0  0  0
  7  8  1  0  0  0  0
  7  9  1  0  0  0  0
  7 10  1  0  0  0  0
 10 11  1  0  0  0  0
 10 12  1  0  0  0  0
 10 13  1  0  0  0  0
 13 14  1  0  0  0  0
 13 15  1  0  0  0  0
 13 16  1  0  0  0  0
 16 17  1  0  0  0  0
 16 18  1  0  0  0  0
 16 19  1  0  0  0  0
 19 20  1  0  0  0  0
 19 21  1  0  0  0  0
 19 22  1  0  0  0  0
  1 23  1  0  0  0  0
 23 24  1  0  0  0  0
 23 25  1  0  0  0  0
 23 26  1  0  0  0  0
M  END
> <VM2 Rank>
174

> <Conf_Id>
1074

> <Probability>
0.00

> <Sum Probability>
99.99

> <Delta G>
4.892

> <G>
80.358

> <E>
47.447

> <-TS>
32.911

> <U+W>
25.985

> <U>
76.026

> <W>
-50.041

> <W(PB)>
-52.258

> <W(SA)>
2.217

> <Valence>
5.956

> <Coulomb>
70.111

> <VdW>
-0.042

> <VdW6>
-8.366

> <VdW12>
8.324

> <Bond>
0.228

> <Angle>
1.342

> <Pdih>
4.386

> <Idih>
0.000

> <Tether>
0.000

$$$$
VeraChem MOL file


 26 25  0  0  0  0  0  0  0  0999 V2000     
   20.7102   19.3327   25.0661 N   0  3  0  0  0  0  0  0  0  0  0  0
   20.7355   20.0412   24.3188 H   0  0  0  0  0  0  0  0  0  0  0  0
   21.5471   18.7465   24.9236 H   0  0  0  0  0  0  0  0  0  0  0  0
   19.4571   18.4894   24.9370 C   0  0  0  0  0  0  0  0  0  0  0  0
   18.5926   19.1222   25.1528 H   0  0  0  0  0  0  0  0  0  0  0  0
   19.5129   17.7173   25.7085 H   0  0  0  0  0  0  0  0  0  0  0  0
   19.2772   17.8155   23.5603 C   0  0  0  0  0  0  0  0  0  0  0  0
   20.2220   17.3666   23.2286 H   0  0  0  0  0  0  0  0  0  0  0  0
   18.5821   16.9759   23.6927 H   0  0  0  0  0  0  0  0  0  0  0  0
   18.6881   18.7455   22.4660 C   0  0  0  0  0  0  0  0  0  0  0  0
   17.7180   19.1275   22.8129 H   0  0  0  0  0  0  0  0  0  0  0  0
   18.4609   18.1412   21.5777 H   0  0  0  0  0  0  0  0  0  0  0  0
   19.5710   19.9503   22.0435 C   0  0  0  0  0  0  0  0  0  0  0  0
   19.0454   20.5015   21.2514 H   0  0  0  0  0  0  0  0  0  0  0  0
   19.6529   20.6586   22.8772 H   0  0  0  0  0  0  0  0  0  0  0  0
   20.9873   19.5836   21.5299 C   0  0  0  0  0  0  0  0  0  0  0  0
   21.5726   19.0992   22.3215 H   0  0  0  0  0  0  0  0  0  0  0  0
   21.5221   20.5117   21.2835 H   0  0  0  0  0  0  0  0  0  0  0  0
   20.9665   18.6767   20.2788 C   0  0  0  0  0  0  0  0  0  0  0  0
   21.9851   18.5173   19.9021 H   0  0  0  0  0  0  0  0  0  0  0  0
   20.3775   19.1309   19.4715 H   0  0  0  0  0  0  0  0  0  0  0  0
   20.5396   17.6914   20.5033 H   0  0  0  0  0  0  0  0  0  0  0  0
   20.7505   19.9962   26.4354 C   0  0  0  0  0  0  0  0  0  0  0  0
   20.7524   19.2243   27.2081 H   0  0  0  0  0  0  0  0  0  0  0  0
   21.6574   20.5998   26.5148 H   0  0  0  0  0  0  0  0  0  0  0  0
   19.8714   20.6338   26.5515 H   0  0  0  0  0  0  0  0  0  0  0  0
  1  2  1  0  0  0  0
  1  3  1  0  0  0  0
  1  4  1  0  0  0  0
  4  5  1  0  0  0  0
  4  6  1  0  0  0  0
  4  7  1  0  0  0  0
  7  8  1  0  0  0  0
  7  9  1  0  0  0  0
  7 10  1  0  0  0  0
 10 11  1  0  0  0  0
 10 12  1  0  0  0  0
 10 13  1  0  0  0  0
 13 14  1  0  0  0  0
 13 15  1  0  0  0  0
 13 16  1  0  0  0  0
 16 17  1  0  0  0  0
 16 18  1  0  0  0  0
 16 19  1  0  0  0  0
 19 20  1  0  0  0  0
 19 21  1  0  0  0  0
 19 22  1  0  0  0  0
  1 23  1  0  0  0  0
 23 24  1  0  0  0  0
 23 25  1  0  0  0  0
 23 26  1  0  0  0  0
M  END
> <VM2 Rank>
175

> <Conf_Id>
284

> <Probability>
0.00

> <Sum Probability>
99.99

> <Delta G>
4.986

> <G>
80.452

> <E>
47.329

> <-TS>
33.124

> <U+W>
25.867

> <U>
75.257

> <W>
-49.390

> <W(PB)>
-51.577

> <W(SA)>
2.188

> <Valence>
4.258

> <Coulomb>
71.252

> <VdW>
-0.253

> <VdW6>
-9.004

> <VdW12>
8.750

> <Bond>
0.262

> <Angle>
1.778

> <Pdih>
2.217

> <Idih>
0.000

> <Tether>
0.000

$$$$
VeraChem MOL file


 26 25  0  0  0  0  0  0  0  0999 V2000     
   19.7388   18.3347   24.8559 N   0  3  0  0  0  0  0  0  0  0  0  0
   20.4041   17.5464   24.8312 H   0  0  0  0  0  0  0  0  0  0  0  0
   19.2604   18.3238   23.9432 H   0  0  0  0  0  0  0  0  0  0  0  0
   20.4878   19.6415   25.0317 C   0  0  0  0  0  0  0  0  0  0  0  0
   21.0421   19.5665   25.9706 H   0  0  0  0  0  0  0  0  0  0  0  0
   19.7569   20.4476   25.1325 H   0  0  0  0  0  0  0  0  0  0  0  0
   21.4704   19.9709   23.8880 C   0  0  0  0  0  0  0  0  0  0  0  0
   22.2129   20.6779   24.2812 H   0  0  0  0  0  0  0  0  0  0  0  0
   22.0382   19.0754   23.6052 H   0  0  0  0  0  0  0  0  0  0  0  0
   20.8089   20.6253   22.6452 C   0  0  0  0  0  0  0  0  0  0  0  0
   21.5973   20.8861   21.9257 H   0  0  0  0  0  0  0  0  0  0  0  0
   20.3568   21.5796   22.9491 H   0  0  0  0  0  0  0  0  0  0  0  0
   19.7323   19.7796   21.9180 C   0  0  0  0  0  0  0  0  0  0  0  0
   18.8741   19.6099   22.5800 H   0  0  0  0  0  0  0  0  0  0  0  0
   19.3412   20.3720   21.0791 H   0  0  0  0  0  0  0  0  0  0  0  0
   20.2661   18.4362   21.3656 C   0  0  0  0  0  0  0  0  0  0  0  0
   20.6657   17.8138   22.1759 H   0  0  0  0  0  0  0  0  0  0  0  0
   21.1017   18.6282   20.6779 H   0  0  0  0  0  0  0  0  0  0  0  0
   19.1651   17.6489   20.6239 C   0  0  0  0  0  0  0  0  0  0  0  0
   18.7730   18.2235   19.7746 H   0  0  0  0  0  0  0  0  0  0  0  0
   18.3269   17.4128   21.2922 H   0  0  0  0  0  0  0  0  0  0  0  0
   19.5615   16.7023   20.2341 H   0  0  0  0  0  0  0  0  0  0  0  0
   18.7386   18.1529   25.9887 C   0  0  0  0  0  0  0  0  0  0  0  0
   18.2072   17.2088   25.8497 H   0  0  0  0  0  0  0  0  0  0  0  0
   19.2736   18.1383   26.9407 H   0  0  0  0  0  0  0  0  0  0  0  0
   18.0276   18.9819   25.9766 H   0  0  0  0  0  0  0  0  0  0  0  0
  1  2  1  0  0  0  0
  1  3  1  0  0  0  0
  1  4  1  0  0  0  0
  4  5  1  0  0  0  0
  4  6  1  0  0  0  0
  4  7  1  0  0  0  0
  7  8  1  0  0  0  0
  7  9  1  0  0  0  0
  7 10  1  0  0  0  0
 10 11  1  0  0  0  0
 10 12  1  0  0  0  0
 10 13  1  0  0  0  0
 13 14  1  0  0  0  0
 13 15  1  0  0  0  0
 13 16  1  0  0  0  0
 16 17  1  0  0  0  0
 16 18  1  0  0  0  0
 16 19  1  0  0  0  0
 19 20  1  0  0  0  0
 19 21  1  0  0  0  0
 19 22  1  0  0  0  0
  1 23  1  0  0  0  0
 23 24  1  0  0  0  0
 23 25  1  0  0  0  0
 23 26  1  0  0  0  0
M  END
> <VM2 Rank>
176

> <Conf_Id>
258

> <Probability>
0.00

> <Sum Probability>
99.99

> <Delta G>
5.238

> <G>
80.704

> <E>
47.756

> <-TS>
32.948

> <U+W>
26.294

> <U>
74.740

> <W>
-48.446

> <W(PB)>
-50.667

> <W(SA)>
2.221

> <Valence>
3.847

> <Coulomb>
71.181

> <VdW>
-0.288

> <VdW6>
-8.401

> <VdW12>
8.113

> <Bond>
0.222

> <Angle>
1.471

> <Pdih>
2.154

> <Idih>
0.000

> <Tether>
0.000

$$$$
VeraChem MOL file


 26 25  0  0  0  0  0  0  0  0999 V2000     
   20.3929   18.4003   24.8791 N   0  3  0  0  0  0  0  0  0  0  0  0
   20.9268   18.4910   24.0023 H   0  0  0  0  0  0  0  0  0  0  0  0
   19.9007   17.4959   24.8134 H   0  0  0  0  0  0  0  0  0  0  0  0
   19.3891   19.5312   24.9927 C   0  0  0  0  0  0  0  0  0  0  0  0
   19.9366   20.4657   25.1388 H   0  0  0  0  0  0  0  0  0  0  0  0
   18.7962   19.3412   25.8909 H   0  0  0  0  0  0  0  0  0  0  0  0
   18.4434   19.6671   23.7806 C   0  0  0  0  0  0  0  0  0  0  0  0
   18.0859   18.6787   23.4650 H   0  0  0  0  0  0  0  0  0  0  0  0
   17.5496   20.2098   24.1157 H   0  0  0  0  0  0  0  0  0  0  0  0
   19.0474   20.4485   22.5827 C   0  0  0  0  0  0  0  0  0  0  0  0
   19.2786   21.4714   22.9109 H   0  0  0  0  0  0  0  0  0  0  0  0
   18.2753   20.5527   21.8078 H   0  0  0  0  0  0  0  0  0  0  0  0
   20.3187   19.8385   21.9388 C   0  0  0  0  0  0  0  0  0  0  0  0
   20.6423   20.5026   21.1253 H   0  0  0  0  0  0  0  0  0  0  0  0
   21.1449   19.8378   22.6605 H   0  0  0  0  0  0  0  0  0  0  0  0
   20.1023   18.4198   21.3598 C   0  0  0  0  0  0  0  0  0  0  0  0
   19.2956   18.4470   20.6137 H   0  0  0  0  0  0  0  0  0  0  0  0
   19.7782   17.7247   22.1444 H   0  0  0  0  0  0  0  0  0  0  0  0
   21.3869   17.8718   20.7028 C   0  0  0  0  0  0  0  0  0  0  0  0
   21.7160   18.5188   19.8791 H   0  0  0  0  0  0  0  0  0  0  0  0
   21.2147   16.8682   20.2928 H   0  0  0  0  0  0  0  0  0  0  0  0
   22.2062   17.8021   21.4300 H   0  0  0  0  0  0  0  0  0  0  0  0
   21.3274   18.4127   26.0805 C   0  0  0  0  0  0  0  0  0  0  0  0
   20.7405   18.2856   26.9928 H   0  0  0  0  0  0  0  0  0  0  0  0
   22.0439   17.5938   25.9859 H   0  0  0  0  0  0  0  0  0  0  0  0
   21.8588   19.3664   26.1124 H   0  0  0  0  0  0  0  0  0  0  0  0
  1  2  1  0  0  0  0
  1  3  1  0  0  0  0
  1  4  1  0  0  0  0
  4  5  1  0  0  0  0
  4  6  1  0  0  0  0
  4  7  1  0  0  0  0
  7  8  1  0  0  0  0
  7  9  1  0  0  0  0
  7 10  1  0  0  0  0
 10 11  1  0  0  0  0
 10 12  1  0  0  0  0
 10 13  1  0  0  0  0
 13 14  1  0  0  0  0
 13 15  1  0  0  0  0
 13 16  1  0  0  0  0
 16 17  1  0  0  0  0
 16 18  1  0  0  0  0
 16 19  1  0  0  0  0
 19 20  1  0  0  0  0
 19 21  1  0  0  0  0
 19 22  1  0  0  0  0
  1 23  1  0  0  0  0
 23 24  1  0  0  0  0
 23 25  1  0  0  0  0
 23 26  1  0  0  0  0
M  END
> <VM2 Rank>
177

> <Conf_Id>
149

> <Probability>
0.00

> <Sum Probability>
99.99

> <Delta G>
5.291

> <G>
80.757

> <E>
47.809

> <-TS>
32.948

> <U+W>
26.347

> <U>
74.740

> <W>
-48.393

> <W(PB)>
-50.619

> <W(SA)>
2.226

> <Valence>
3.847

> <Coulomb>
71.181

> <VdW>
-0.288

> <VdW6>
-8.401

> <VdW12>
8.113

> <Bond>
0.222

> <Angle>
1.471

> <Pdih>
2.154

> <Idih>
0.000

> <Tether>
0.000

$$$$
VeraChem MOL file


 26 25  0  0  0  0  0  0  0  0999 V2000     
   19.9890   18.7593   26.1090 N   0  3  0  0  0  0  0  0  0  0  0  0
   20.3984   18.4097   26.9898 H   0  0  0  0  0  0  0  0  0  0  0  0
   19.0937   18.2565   26.0140 H   0  0  0  0  0  0  0  0  0  0  0  0
   20.9150   18.4136   24.9536 C   0  0  0  0  0  0  0  0  0  0  0  0
   21.4623   17.5146   25.2484 H   0  0  0  0  0  0  0  0  0  0  0  0
   21.6409   19.2229   24.8425 H   0  0  0  0  0  0  0  0  0  0  0  0
   20.2188   18.1268   23.6043 C   0  0  0  0  0  0  0  0  0  0  0  0
   20.9836   17.7808   22.9000 H   0  0  0  0  0  0  0  0  0  0  0  0
   19.5208   17.2884   23.7281 H   0  0  0  0  0  0  0  0  0  0  0  0
   19.4667   19.3454   23.0127 C   0  0  0  0  0  0  0  0  0  0  0  0
   20.1069   20.2381   23.0318 H   0  0  0  0  0  0  0  0  0  0  0  0
   18.6074   19.5670   23.6590 H   0  0  0  0  0  0  0  0  0  0  0  0
   18.9355   19.1021   21.5758 C   0  0  0  0  0  0  0  0  0  0  0  0
   18.7199   18.0355   21.4238 H   0  0  0  0  0  0  0  0  0  0  0  0
   17.9692   19.6159   21.4762 H   0  0  0  0  0  0  0  0  0  0  0  0
   19.8602   19.6263   20.4472 C   0  0  0  0  0  0  0  0  0  0  0  0
   19.9871   20.7130   20.5506 H   0  0  0  0  0  0  0  0  0  0  0  0
   19.3568   19.4700   19.4828 H   0  0  0  0  0  0  0  0  0  0  0  0
   21.2485   18.9514   20.3961 C   0  0  0  0  0  0  0  0  0  0  0  0
   21.8049   19.2857   19.5109 H   0  0  0  0  0  0  0  0  0  0  0  0
   21.1563   17.8591   20.3412 H   0  0  0  0  0  0  0  0  0  0  0  0
   21.8498   19.2083   21.2770 H   0  0  0  0  0  0  0  0  0  0  0  0
   19.7742   20.2651   26.2183 C   0  0  0  0  0  0  0  0  0  0  0  0
   19.1257   20.4714   27.0727 H   0  0  0  0  0  0  0  0  0  0  0  0
   20.7399   20.7539   26.3641 H   0  0  0  0  0  0  0  0  0  0  0  0
   19.3074   20.6379   25.3058 H   0  0  0  0  0  0  0  0  0  0  0  0
  1  2  1  0  0  0  0
  1  3  1  0  0  0  0
  1  4  1  0  0  0  0
  4  5  1  0  0  0  0
  4  6  1  0  0  0  0
  4  7  1  0  0  0  0
  7  8  1  0  0  0  0
  7  9  1  0  0  0  0
  7 10  1  0  0  0  0
 10 11  1  0  0  0  0
 10 12  1  0  0  0  0
 10 13  1  0  0  0  0
 13 14  1  0  0  0  0
 13 15  1  0  0  0  0
 13 16  1  0  0  0  0
 16 17  1  0  0  0  0
 16 18  1  0  0  0  0
 16 19  1  0  0  0  0
 19 20  1  0  0  0  0
 19 21  1  0  0  0  0
 19 22  1  0  0  0  0
  1 23  1  0  0  0  0
 23 24  1  0  0  0  0
 23 25  1  0  0  0  0
 23 26  1  0  0  0  0
M  END
> <VM2 Rank>
178

> <Conf_Id>
510

> <Probability>
0.00

> <Sum Probability>
99.99

> <Delta G>
5.472

> <G>
80.938

> <E>
48.019

> <-TS>
32.919

> <U+W>
26.557

> <U>
76.255

> <W>
-49.697

> <W(PB)>
-51.921

> <W(SA)>
2.224

> <Valence>
6.727

> <Coulomb>
69.126

> <VdW>
0.401

> <VdW6>
-8.493

> <VdW12>
8.894

> <Bond>
0.275

> <Angle>
1.572

> <Pdih>
4.881

> <Idih>
0.000

> <Tether>
0.000

$$$$
VeraChem MOL file


 26 25  0  0  0  0  0  0  0  0999 V2000     
   19.2968   18.5620   25.6919 N   0  3  0  0  0  0  0  0  0  0  0  0
   19.1284   17.9919   26.5359 H   0  0  0  0  0  0  0  0  0  0  0  0
   18.5948   18.2404   25.0086 H   0  0  0  0  0  0  0  0  0  0  0  0
   20.7007   18.2914   25.1749 C   0  0  0  0  0  0  0  0  0  0  0  0
   20.9704   17.2862   25.5088 H   0  0  0  0  0  0  0  0  0  0  0  0
   21.3845   18.9956   25.6553 H   0  0  0  0  0  0  0  0  0  0  0  0
   20.8644   18.3445   23.6395 C   0  0  0  0  0  0  0  0  0  0  0  0
   21.8905   18.0345   23.4018 H   0  0  0  0  0  0  0  0  0  0  0  0
   20.2072   17.5955   23.1844 H   0  0  0  0  0  0  0  0  0  0  0  0
   20.6067   19.7456   23.0289 C   0  0  0  0  0  0  0  0  0  0  0  0
   21.2277   20.4733   23.5694 H   0  0  0  0  0  0  0  0  0  0  0  0
   19.5644   20.0508   23.1869 H   0  0  0  0  0  0  0  0  0  0  0  0
   20.9492   19.8362   21.5183 C   0  0  0  0  0  0  0  0  0  0  0  0
   21.3309   20.8465   21.3156 H   0  0  0  0  0  0  0  0  0  0  0  0
   21.7747   19.1549   21.2710 H   0  0  0  0  0  0  0  0  0  0  0  0
   19.7532   19.5919   20.5624 C   0  0  0  0  0  0  0  0  0  0  0  0
   20.0962   19.7494   19.5302 H   0  0  0  0  0  0  0  0  0  0  0  0
   18.9764   20.3482   20.7424 H   0  0  0  0  0  0  0  0  0  0  0  0
   19.1300   18.1828   20.6660 C   0  0  0  0  0  0  0  0  0  0  0  0
   19.8957   17.4019   20.5726 H   0  0  0  0  0  0  0  0  0  0  0  0
   18.3948   18.0294   19.8655 H   0  0  0  0  0  0  0  0  0  0  0  0
   18.6055   18.0484   21.6197 H   0  0  0  0  0  0  0  0  0  0  0  0
   19.1071   20.0356   26.0351 C   0  0  0  0  0  0  0  0  0  0  0  0
   19.2538   20.6440   25.1419 H   0  0  0  0  0  0  0  0  0  0  0  0
   18.0954   20.1848   26.4189 H   0  0  0  0  0  0  0  0  0  0  0  0
   19.8348   20.3209   26.7980 H   0  0  0  0  0  0  0  0  0  0  0  0
  1  2  1  0  0  0  0
  1  3  1  0  0  0  0
  1  4  1  0  0  0  0
  4  5  1  0  0  0  0
  4  6  1  0  0  0  0
  4  7  1  0  0  0  0
  7  8  1  0  0  0  0
  7  9  1  0  0  0  0
  7 10  1  0  0  0  0
 10 11  1  0  0  0  0
 10 12  1  0  0  0  0
 10 13  1  0  0  0  0
 13 14  1  0  0  0  0
 13 15  1  0  0  0  0
 13 16  1  0  0  0  0
 16 17  1  0  0  0  0
 16 18  1  0  0  0  0
 16 19  1  0  0  0  0
 19 20  1  0  0  0  0
 19 21  1  0  0  0  0
 19 22  1  0  0  0  0
  1 23  1  0  0  0  0
 23 24  1  0  0  0  0
 23 25  1  0  0  0  0
 23 26  1  0  0  0  0
M  END
> <VM2 Rank>
179

> <Conf_Id>
1047

> <Probability>
0.00

> <Sum Probability>
99.99

> <Delta G>
5.488

> <G>
80.954

> <E>
48.183

> <-TS>
32.770

> <U+W>
26.721

> <U>
76.621

> <W>
-49.900

> <W(PB)>
-52.079

> <W(SA)>
2.179

> <Valence>
6.730

> <Coulomb>
69.541

> <VdW>
0.350

> <VdW6>
-8.499

> <VdW12>
8.849

> <Bond>
0.279

> <Angle>
1.639

> <Pdih>
4.812

> <Idih>
0.000

> <Tether>
0.000

$$$$
VeraChem MOL file


 26 25  0  0  0  0  0  0  0  0999 V2000     
   19.9777   18.7582   26.1086 N   0  3  0  0  0  0  0  0  0  0  0  0
   20.9606   18.4476   26.0801 H   0  0  0  0  0  0  0  0  0  0  0  0
   19.5869   18.3268   26.9610 H   0  0  0  0  0  0  0  0  0  0  0  0
   19.2241   18.2406   24.8936 C   0  0  0  0  0  0  0  0  0  0  0  0
   18.3590   18.8870   24.7261 H   0  0  0  0  0  0  0  0  0  0  0  0
   18.8506   17.2474   25.1559 H   0  0  0  0  0  0  0  0  0  0  0  0
   20.0567   18.1101   23.5986 C   0  0  0  0  0  0  0  0  0  0  0  0
   20.8995   17.4294   23.7770 H   0  0  0  0  0  0  0  0  0  0  0  0
   19.4290   17.6216   22.8450 H   0  0  0  0  0  0  0  0  0  0  0  0
   20.5863   19.4598   23.0523 C   0  0  0  0  0  0  0  0  0  0  0  0
   21.3356   19.8460   23.7556 H   0  0  0  0  0  0  0  0  0  0  0  0
   19.7790   20.2044   23.0202 H   0  0  0  0  0  0  0  0  0  0  0  0
   21.2550   19.3393   21.6579 C   0  0  0  0  0  0  0  0  0  0  0  0
   22.1020   20.0385   21.6225 H   0  0  0  0  0  0  0  0  0  0  0  0
   21.6918   18.3394   21.5290 H   0  0  0  0  0  0  0  0  0  0  0  0
   20.3247   19.6738   20.4637 C   0  0  0  0  0  0  0  0  0  0  0  0
   20.9155   19.6293   19.5380 H   0  0  0  0  0  0  0  0  0  0  0  0
   19.9738   20.7117   20.5501 H   0  0  0  0  0  0  0  0  0  0  0  0
   19.1084   18.7327   20.3205 C   0  0  0  0  0  0  0  0  0  0  0  0
   18.4076   18.8564   21.1553 H   0  0  0  0  0  0  0  0  0  0  0  0
   19.4231   17.6819   20.2799 H   0  0  0  0  0  0  0  0  0  0  0  0
   18.5592   18.9539   19.3962 H   0  0  0  0  0  0  0  0  0  0  0  0
   19.8752   20.2755   26.2217 C   0  0  0  0  0  0  0  0  0  0  0  0
   20.3198   20.7415   25.3415 H   0  0  0  0  0  0  0  0  0  0  0  0
   18.8228   20.5578   26.2959 H   0  0  0  0  0  0  0  0  0  0  0  0
   20.4071   20.6027   27.1179 H   0  0  0  0  0  0  0  0  0  0  0  0
  1  2  1  0  0  0  0
  1  3  1  0  0  0  0
  1  4  1  0  0  0  0
  4  5  1  0  0  0  0
  4  6  1  0  0  0  0
  4  7  1  0  0  0  0
  7  8  1  0  0  0  0
  7  9  1  0  0  0  0
  7 10  1  0  0  0  0
 10 11  1  0  0  0  0
 10 12  1  0  0  0  0
 10 13  1  0  0  0  0
 13 14  1  0  0  0  0
 13 15  1  0  0  0  0
 13 16  1  0  0  0  0
 16 17  1  0  0  0  0
 16 18  1  0  0  0  0
 16 19  1  0  0  0  0
 19 20  1  0  0  0  0
 19 21  1  0  0  0  0
 19 22  1  0  0  0  0
  1 23  1  0  0  0  0
 23 24  1  0  0  0  0
 23 25  1  0  0  0  0
 23 26  1  0  0  0  0
M  END
> <VM2 Rank>
180

> <Conf_Id>
232

> <Probability>
0.00

> <Sum Probability>
100.00

> <Delta G>
5.503

> <G>
80.969

> <E>
48.050

> <-TS>
32.919

> <U+W>
26.588

> <U>
76.255

> <W>
-49.667

> <W(PB)>
-51.863

> <W(SA)>
2.196

> <Valence>
6.727

> <Coulomb>
69.126

> <VdW>
0.402

> <VdW6>
-8.493

> <VdW12>
8.895

> <Bond>
0.274

> <Angle>
1.571

> <Pdih>
4.881

> <Idih>
0.000

> <Tether>
0.000

$$$$
VeraChem MOL file


 26 25  0  0  0  0  0  0  0  0999 V2000     
   20.5702   18.7415   25.8796 N   0  3  0  0  0  0  0  0  0  0  0  0
   21.2665   18.0080   25.6774 H   0  0  0  0  0  0  0  0  0  0  0  0
   20.4456   18.7098   26.9039 H   0  0  0  0  0  0  0  0  0  0  0  0
   19.2467   18.4074   25.2046 C   0  0  0  0  0  0  0  0  0  0  0  0
   18.5265   19.1941   25.4424 H   0  0  0  0  0  0  0  0  0  0  0  0
   18.8936   17.4824   25.6678 H   0  0  0  0  0  0  0  0  0  0  0  0
   19.3107   18.1880   23.6768 C   0  0  0  0  0  0  0  0  0  0  0  0
   20.2804   17.7558   23.4060 H   0  0  0  0  0  0  0  0  0  0  0  0
   18.5587   17.4329   23.4125 H   0  0  0  0  0  0  0  0  0  0  0  0
   19.0110   19.4744   22.8644 C   0  0  0  0  0  0  0  0  0  0  0  0
   19.6758   20.2960   23.1559 H   0  0  0  0  0  0  0  0  0  0  0  0
   17.9958   19.8071   23.1215 H   0  0  0  0  0  0  0  0  0  0  0  0
   19.0841   19.2636   21.3296 C   0  0  0  0  0  0  0  0  0  0  0  0
   18.8093   18.2315   21.0719 H   0  0  0  0  0  0  0  0  0  0  0  0
   18.3206   19.8990   20.8597 H   0  0  0  0  0  0  0  0  0  0  0  0
   20.4498   19.6269   20.6917 C   0  0  0  0  0  0  0  0  0  0  0  0
   20.6647   20.6909   20.8630 H   0  0  0  0  0  0  0  0  0  0  0  0
   20.3690   19.5052   19.6025 H   0  0  0  0  0  0  0  0  0  0  0  0
   21.6363   18.7776   21.1982 C   0  0  0  0  0  0  0  0  0  0  0  0
   21.8597   18.9912   22.2505 H   0  0  0  0  0  0  0  0  0  0  0  0
   22.5420   19.0010   20.6197 H   0  0  0  0  0  0  0  0  0  0  0  0
   21.4285   17.7048   21.0946 H   0  0  0  0  0  0  0  0  0  0  0  0
   21.0992   20.1106   25.4722 C   0  0  0  0  0  0  0  0  0  0  0  0
   20.3379   20.8661   25.6778 H   0  0  0  0  0  0  0  0  0  0  0  0
   22.0017   20.3296   26.0472 H   0  0  0  0  0  0  0  0  0  0  0  0
   21.3389   20.1009   24.4074 H   0  0  0  0  0  0  0  0  0  0  0  0
  1  2  1  0  0  0  0
  1  3  1  0  0  0  0
  1  4  1  0  0  0  0
  4  5  1  0  0  0  0
  4  6  1  0  0  0  0
  4  7  1  0  0  0  0
  7  8  1  0  0  0  0
  7  9  1  0  0  0  0
  7 10  1  0  0  0  0
 10 11  1  0  0  0  0
 10 12  1  0  0  0  0
 10 13  1  0  0  0  0
 13 14  1  0  0  0  0
 13 15  1  0  0  0  0
 13 16  1  0  0  0  0
 16 17  1  0  0  0  0
 16 18  1  0  0  0  0
 16 19  1  0  0  0  0
 19 20  1  0  0  0  0
 19 21  1  0  0  0  0
 19 22  1  0  0  0  0
  1 23  1  0  0  0  0
 23 24  1  0  0  0  0
 23 25  1  0  0  0  0
 23 26  1  0  0  0  0
M  END
> <VM2 Rank>
181

> <Conf_Id>
844

> <Probability>
0.00

> <Sum Probability>
100.00

> <Delta G>
5.584

> <G>
81.050

> <E>
48.084

> <-TS>
32.965

> <U+W>
26.623

> <U>
76.731

> <W>
-50.109

> <W(PB)>
-52.277

> <W(SA)>
2.169

> <Valence>
6.800

> <Coulomb>
69.648

> <VdW>
0.284

> <VdW6>
-8.795

> <VdW12>
9.078

> <Bond>
0.283

> <Angle>
1.709

> <Pdih>
4.808

> <Idih>
0.000

> <Tether>
0.000

$$$$
VeraChem MOL file


 26 25  0  0  0  0  0  0  0  0999 V2000     
   20.1772   18.4732   26.1293 N   0  3  0  0  0  0  0  0  0  0  0  0
   20.6835   18.4902   27.0288 H   0  0  0  0  0  0  0  0  0  0  0  0
   19.9175   17.4842   25.9932 H   0  0  0  0  0  0  0  0  0  0  0  0
   21.1152   18.9251   25.0181 C   0  0  0  0  0  0  0  0  0  0  0  0
   22.0261   18.3312   25.1284 H   0  0  0  0  0  0  0  0  0  0  0  0
   21.3785   19.9719   25.1891 H   0  0  0  0  0  0  0  0  0  0  0  0
   20.5880   18.7369   23.5781 C   0  0  0  0  0  0  0  0  0  0  0  0
   21.4479   18.4936   22.9421 H   0  0  0  0  0  0  0  0  0  0  0  0
   19.9092   17.8750   23.5366 H   0  0  0  0  0  0  0  0  0  0  0  0
   19.9003   20.0037   23.0123 C   0  0  0  0  0  0  0  0  0  0  0  0
   20.6385   20.8143   22.9408 H   0  0  0  0  0  0  0  0  0  0  0  0
   19.1358   20.3569   23.7143 H   0  0  0  0  0  0  0  0  0  0  0  0
   19.2242   19.8014   21.6313 C   0  0  0  0  0  0  0  0  0  0  0  0
   18.4138   19.0638   21.7119 H   0  0  0  0  0  0  0  0  0  0  0  0
   18.7353   20.7480   21.3621 H   0  0  0  0  0  0  0  0  0  0  0  0
   20.1894   19.4146   20.4808 C   0  0  0  0  0  0  0  0  0  0  0  0
   21.1887   19.8340   20.6628 H   0  0  0  0  0  0  0  0  0  0  0  0
   19.8312   19.8818   19.5527 H   0  0  0  0  0  0  0  0  0  0  0  0
   20.2813   17.8894   20.2399 C   0  0  0  0  0  0  0  0  0  0  0  0
   20.9549   17.6736   19.4005 H   0  0  0  0  0  0  0  0  0  0  0  0
   19.2969   17.4720   19.9914 H   0  0  0  0  0  0  0  0  0  0  0  0
   20.6627   17.3542   21.1162 H   0  0  0  0  0  0  0  0  0  0  0  0
   18.9324   19.3457   26.2271 C   0  0  0  0  0  0  0  0  0  0  0  0
   18.3441   19.2355   25.3143 H   0  0  0  0  0  0  0  0  0  0  0  0
   18.3382   19.0242   27.0854 H   0  0  0  0  0  0  0  0  0  0  0  0
   19.2328   20.3878   26.3553 H   0  0  0  0  0  0  0  0  0  0  0  0
  1  2  1  0  0  0  0
  1  3  1  0  0  0  0
  1  4  1  0  0  0  0
  4  5  1  0  0  0  0
  4  6  1  0  0  0  0
  4  7  1  0  0  0  0
  7  8  1  0  0  0  0
  7  9  1  0  0  0  0
  7 10  1  0  0  0  0
 10 11  1  0  0  0  0
 10 12  1  0  0  0  0
 10 13  1  0  0  0  0
 13 14  1  0  0  0  0
 13 15  1  0  0  0  0
 13 16  1  0  0  0  0
 16 17  1  0  0  0  0
 16 18  1  0  0  0  0
 16 19  1  0  0  0  0
 19 20  1  0  0  0  0
 19 21  1  0  0  0  0
 19 22  1  0  0  0  0
  1 23  1  0  0  0  0
 23 24  1  0  0  0  0
 23 25  1  0  0  0  0
 23 26  1  0  0  0  0
M  END
> <VM2 Rank>
182

> <Conf_Id>
450

> <Probability>
0.00

> <Sum Probability>
100.00

> <Delta G>
5.605

> <G>
81.071

> <E>
48.310

> <-TS>
32.761

> <U+W>
26.848

> <U>
76.536

> <W>
-49.688

> <W(PB)>
-51.899

> <W(SA)>
2.211

> <Valence>
6.954

> <Coulomb>
69.035

> <VdW>
0.547

> <VdW6>
-8.376

> <VdW12>
8.923

> <Bond>
0.281

> <Angle>
1.723

> <Pdih>
4.950

> <Idih>
0.000

> <Tether>
0.000

$$$$
VeraChem MOL file


 26 25  0  0  0  0  0  0  0  0999 V2000     
   19.3766   18.9829   25.6597 N   0  3  0  0  0  0  0  0  0  0  0  0
   19.1503   18.8830   26.6619 H   0  0  0  0  0  0  0  0  0  0  0  0
   18.7338   18.3392   25.1753 H   0  0  0  0  0  0  0  0  0  0  0  0
   20.8184   18.5635   25.4267 C   0  0  0  0  0  0  0  0  0  0  0  0
   21.0660   17.8494   26.2163 H   0  0  0  0  0  0  0  0  0  0  0  0
   21.4536   19.4417   25.5663 H   0  0  0  0  0  0  0  0  0  0  0  0
   21.1277   17.8918   24.0674 C   0  0  0  0  0  0  0  0  0  0  0  0
   22.1786   17.5749   24.0990 H   0  0  0  0  0  0  0  0  0  0  0  0
   20.5431   16.9684   23.9617 H   0  0  0  0  0  0  0  0  0  0  0  0
   20.9367   18.7988   22.8253 C   0  0  0  0  0  0  0  0  0  0  0  0
   21.6793   18.5058   22.0714 H   0  0  0  0  0  0  0  0  0  0  0  0
   21.1630   19.8419   23.0845 H   0  0  0  0  0  0  0  0  0  0  0  0
   19.5255   18.6831   22.1932 C   0  0  0  0  0  0  0  0  0  0  0  0
   19.3837   17.6675   21.7987 H   0  0  0  0  0  0  0  0  0  0  0  0
   18.7557   18.8171   22.9618 H   0  0  0  0  0  0  0  0  0  0  0  0
   19.2719   19.7121   21.0651 C   0  0  0  0  0  0  0  0  0  0  0  0
   19.3803   20.7315   21.4611 H   0  0  0  0  0  0  0  0  0  0  0  0
   18.2283   19.6214   20.7327 H   0  0  0  0  0  0  0  0  0  0  0  0
   20.2018   19.5280   19.8442 C   0  0  0  0  0  0  0  0  0  0  0  0
   21.2495   19.7272   20.1018 H   0  0  0  0  0  0  0  0  0  0  0  0
   19.9225   20.2215   19.0405 H   0  0  0  0  0  0  0  0  0  0  0  0
   20.1331   18.5075   19.4456 H   0  0  0  0  0  0  0  0  0  0  0  0
   19.1495   20.4299   25.2354 C   0  0  0  0  0  0  0  0  0  0  0  0
   19.3649   20.5369   24.1712 H   0  0  0  0  0  0  0  0  0  0  0  0
   18.1090   20.6998   25.4294 H   0  0  0  0  0  0  0  0  0  0  0  0
   19.8115   21.0793   25.8123 H   0  0  0  0  0  0  0  0  0  0  0  0
  1  2  1  0  0  0  0
  1  3  1  0  0  0  0
  1  4  1  0  0  0  0
  4  5  1  0  0  0  0
  4  6  1  0  0  0  0
  4  7  1  0  0  0  0
  7  8  1  0  0  0  0
  7  9  1  0  0  0  0
  7 10  1  0  0  0  0
 10 11  1  0  0  0  0
 10 12  1  0  0  0  0
 10 13  1  0  0  0  0
 13 14  1  0  0  0  0
 13 15  1  0  0  0  0
 13 16  1  0  0  0  0
 16 17  1  0  0  0  0
 16 18  1  0  0  0  0
 16 19  1  0  0  0  0
 19 20  1  0  0  0  0
 19 21  1  0  0  0  0
 19 22  1  0  0  0  0
  1 23  1  0  0  0  0
 23 24  1  0  0  0  0
 23 25  1  0  0  0  0
 23 26  1  0  0  0  0
M  END
> <VM2 Rank>
183

> <Conf_Id>
265

> <Probability>
0.00

> <Sum Probability>
100.00

> <Delta G>
5.687

> <G>
81.153

> <E>
48.075

> <-TS>
33.079

> <U+W>
26.613

> <U>
76.615

> <W>
-50.002

> <W(PB)>
-52.184

> <W(SA)>
2.182

> <Valence>
6.481

> <Coulomb>
70.025

> <VdW>
0.109

> <VdW6>
-9.001

> <VdW12>
9.110

> <Bond>
0.267

> <Angle>
1.571

> <Pdih>
4.643

> <Idih>
0.000

> <Tether>
0.000

$$$$
VeraChem MOL file


 26 25  0  0  0  0  0  0  0  0999 V2000     
   19.2605   19.1293   25.6749 N   0  3  0  0  0  0  0  0  0  0  0  0
   19.7362   18.6389   26.4477 H   0  0  0  0  0  0  0  0  0  0  0  0
   18.2744   19.1947   25.9730 H   0  0  0  0  0  0  0  0  0  0  0  0
   19.3476   18.3017   24.4001 C   0  0  0  0  0  0  0  0  0  0  0  0
   18.8329   18.8432   23.6050 H   0  0  0  0  0  0  0  0  0  0  0  0
   18.7881   17.3828   24.5935 H   0  0  0  0  0  0  0  0  0  0  0  0
   20.7765   17.9128   23.9548 C   0  0  0  0  0  0  0  0  0  0  0  0
   21.4111   17.8206   24.8461 H   0  0  0  0  0  0  0  0  0  0  0  0
   20.7482   16.9105   23.5077 H   0  0  0  0  0  0  0  0  0  0  0  0
   21.4366   18.8937   22.9485 C   0  0  0  0  0  0  0  0  0  0  0  0
   22.5258   18.7799   23.0372 H   0  0  0  0  0  0  0  0  0  0  0  0
   21.2318   19.9354   23.2203 H   0  0  0  0  0  0  0  0  0  0  0  0
   21.0665   18.6413   21.4615 C   0  0  0  0  0  0  0  0  0  0  0  0
   21.6885   19.2925   20.8320 H   0  0  0  0  0  0  0  0  0  0  0  0
   21.3493   17.6139   21.1937 H   0  0  0  0  0  0  0  0  0  0  0  0
   19.5812   18.8643   21.0821 C   0  0  0  0  0  0  0  0  0  0  0  0
   18.9376   18.1657   21.6318 H   0  0  0  0  0  0  0  0  0  0  0  0
   19.4527   18.6110   20.0205 H   0  0  0  0  0  0  0  0  0  0  0  0
   19.1039   20.3185   21.3005 C   0  0  0  0  0  0  0  0  0  0  0  0
   19.7280   21.0252   20.7384 H   0  0  0  0  0  0  0  0  0  0  0  0
   19.1358   20.6036   22.3584 H   0  0  0  0  0  0  0  0  0  0  0  0
   18.0687   20.4392   20.9561 H   0  0  0  0  0  0  0  0  0  0  0  0
   19.8352   20.5284   25.4947 C   0  0  0  0  0  0  0  0  0  0  0  0
   19.6947   21.0933   26.4190 H   0  0  0  0  0  0  0  0  0  0  0  0
   20.9011   20.4528   25.2713 H   0  0  0  0  0  0  0  0  0  0  0  0
   19.3156   21.0281   24.6746 H   0  0  0  0  0  0  0  0  0  0  0  0
  1  2  1  0  0  0  0
  1  3  1  0  0  0  0
  1  4  1  0  0  0  0
  4  5  1  0  0  0  0
  4  6  1  0  0  0  0
  4  7  1  0  0  0  0
  7  8  1  0  0  0  0
  7  9  1  0  0  0  0
  7 10  1  0  0  0  0
 10 11  1  0  0  0  0
 10 12  1  0  0  0  0
 10 13  1  0  0  0  0
 13 14  1  0  0  0  0
 13 15  1  0  0  0  0
 13 16  1  0  0  0  0
 16 17  1  0  0  0  0
 16 18  1  0  0  0  0
 16 19  1  0  0  0  0
 19 20  1  0  0  0  0
 19 21  1  0  0  0  0
 19 22  1  0  0  0  0
  1 23  1  0  0  0  0
 23 24  1  0  0  0  0
 23 25  1  0  0  0  0
 23 26  1  0  0  0  0
M  END
> <VM2 Rank>
184

> <Conf_Id>
566

> <Probability>
0.00

> <Sum Probability>
100.00

> <Delta G>
5.793

> <G>
81.259

> <E>
47.651

> <-TS>
33.608

> <U+W>
26.190

> <U>
76.611

> <W>
-50.422

> <W(PB)>
-52.560

> <W(SA)>
2.138

> <Valence>
6.664

> <Coulomb>
69.963

> <VdW>
-0.016

> <VdW6>
-9.993

> <VdW12>
9.977

> <Bond>
0.317

> <Angle>
2.088

> <Pdih>
4.259

> <Idih>
0.000

> <Tether>
0.000

$$$$
VeraChem MOL file


 26 25  0  0  0  0  0  0  0  0999 V2000     
   20.2655   18.7116   25.7582 N   0  3  0  0  0  0  0  0  0  0  0  0
   20.8794   18.2092   26.4186 H   0  0  0  0  0  0  0  0  0  0  0  0
   19.3215   18.6380   26.1665 H   0  0  0  0  0  0  0  0  0  0  0  0
   20.3114   18.0164   24.4060 C   0  0  0  0  0  0  0  0  0  0  0  0
   20.4905   16.9576   24.6095 H   0  0  0  0  0  0  0  0  0  0  0  0
   21.1712   18.3969   23.8497 H   0  0  0  0  0  0  0  0  0  0  0  0
   19.0232   18.1228   23.5571 C   0  0  0  0  0  0  0  0  0  0  0  0
   19.0877   17.4107   22.7256 H   0  0  0  0  0  0  0  0  0  0  0  0
   18.1704   17.7865   24.1613 H   0  0  0  0  0  0  0  0  0  0  0  0
   18.7181   19.5317   22.9902 C   0  0  0  0  0  0  0  0  0  0  0  0
   18.4590   20.2014   23.8201 H   0  0  0  0  0  0  0  0  0  0  0  0
   17.8100   19.4724   22.3747 H   0  0  0  0  0  0  0  0  0  0  0  0
   19.8507   20.1832   22.1506 C   0  0  0  0  0  0  0  0  0  0  0  0
   19.5191   21.1986   21.8931 H   0  0  0  0  0  0  0  0  0  0  0  0
   20.7572   20.3192   22.7542 H   0  0  0  0  0  0  0  0  0  0  0  0
   20.1918   19.4486   20.8280 C   0  0  0  0  0  0  0  0  0  0  0  0
   20.5077   20.1981   20.0888 H   0  0  0  0  0  0  0  0  0  0  0  0
   19.2924   18.9750   20.4106 H   0  0  0  0  0  0  0  0  0  0  0  0
   21.3310   18.4113   20.9634 C   0  0  0  0  0  0  0  0  0  0  0  0
   21.0559   17.5774   21.6172 H   0  0  0  0  0  0  0  0  0  0  0  0
   22.2407   18.8753   21.3659 H   0  0  0  0  0  0  0  0  0  0  0  0
   21.5807   17.9885   19.9817 H   0  0  0  0  0  0  0  0  0  0  0  0
   20.7164   20.1645   25.6635 C   0  0  0  0  0  0  0  0  0  0  0  0
   21.7304   20.1985   25.2594 H   0  0  0  0  0  0  0  0  0  0  0  0
   20.0403   20.7173   25.0106 H   0  0  0  0  0  0  0  0  0  0  0  0
   20.7038   20.6069   26.6620 H   0  0  0  0  0  0  0  0  0  0  0  0
  1  2  1  0  0  0  0
  1  3  1  0  0  0  0
  1  4  1  0  0  0  0
  4  5  1  0  0  0  0
  4  6  1  0  0  0  0
  4  7  1  0  0  0  0
  7  8  1  0  0  0  0
  7  9  1  0  0  0  0
  7 10  1  0  0  0  0
 10 11  1  0  0  0  0
 10 12  1  0  0  0  0
 10 13  1  0  0  0  0
 13 14  1  0  0  0  0
 13 15  1  0  0  0  0
 13 16  1  0  0  0  0
 16 17  1  0  0  0  0
 16 18  1  0  0  0  0
 16 19  1  0  0  0  0
 19 20  1  0  0  0  0
 19 21  1  0  0  0  0
 19 22  1  0  0  0  0
  1 23  1  0  0  0  0
 23 24  1  0  0  0  0
 23 25  1  0  0  0  0
 23 26  1  0  0  0  0
M  END
> <VM2 Rank>
185

> <Conf_Id>
537

> <Probability>
0.00

> <Sum Probability>
100.00

> <Delta G>
5.872

> <G>
81.338

> <E>
47.911

> <-TS>
33.427

> <U+W>
26.449

> <U>
76.759

> <W>
-50.310

> <W(PB)>
-52.453

> <W(SA)>
2.143

> <Valence>
6.999

> <Coulomb>
69.986

> <VdW>
-0.226

> <VdW6>
-10.120

> <VdW12>
9.894

> <Bond>
0.307

> <Angle>
2.297

> <Pdih>
4.395

> <Idih>
0.000

> <Tether>
0.000

$$$$
VeraChem MOL file


 26 25  0  0  0  0  0  0  0  0999 V2000     
   19.5408   18.6759   25.6524 N   0  3  0  0  0  0  0  0  0  0  0  0
   20.2630   18.3630   26.3197 H   0  0  0  0  0  0  0  0  0  0  0  0
   19.0397   17.8199   25.3688 H   0  0  0  0  0  0  0  0  0  0  0  0
   20.1891   19.3277   24.4480 C   0  0  0  0  0  0  0  0  0  0  0  0
   20.7259   20.2139   24.7955 H   0  0  0  0  0  0  0  0  0  0  0  0
   19.3917   19.6535   23.7781 H   0  0  0  0  0  0  0  0  0  0  0  0
   21.1618   18.3945   23.7003 C   0  0  0  0  0  0  0  0  0  0  0  0
   21.9538   18.0978   24.4007 H   0  0  0  0  0  0  0  0  0  0  0  0
   20.6545   17.4691   23.3979 H   0  0  0  0  0  0  0  0  0  0  0  0
   21.8188   19.0673   22.4697 C   0  0  0  0  0  0  0  0  0  0  0  0
   22.7883   18.5800   22.2963 H   0  0  0  0  0  0  0  0  0  0  0  0
   22.0537   20.1164   22.6976 H   0  0  0  0  0  0  0  0  0  0  0  0
   21.0126   18.9792   21.1453 C   0  0  0  0  0  0  0  0  0  0  0  0
   21.6351   19.4216   20.3550 H   0  0  0  0  0  0  0  0  0  0  0  0
   20.8790   17.9277   20.8560 H   0  0  0  0  0  0  0  0  0  0  0  0
   19.6467   19.7118   21.1398 C   0  0  0  0  0  0  0  0  0  0  0  0
   19.4881   20.1479   20.1434 H   0  0  0  0  0  0  0  0  0  0  0  0
   19.6632   20.5613   21.8359 H   0  0  0  0  0  0  0  0  0  0  0  0
   18.4519   18.7770   21.4421 C   0  0  0  0  0  0  0  0  0  0  0  0
   18.3631   17.9978   20.6739 H   0  0  0  0  0  0  0  0  0  0  0  0
   17.5119   19.3437   21.4505 H   0  0  0  0  0  0  0  0  0  0  0  0
   18.5506   18.2782   22.4121 H   0  0  0  0  0  0  0  0  0  0  0  0
   18.5863   19.6565   26.3195 C   0  0  0  0  0  0  0  0  0  0  0  0
   17.8131   19.9474   25.6051 H   0  0  0  0  0  0  0  0  0  0  0  0
   18.1263   19.1756   27.1856 H   0  0  0  0  0  0  0  0  0  0  0  0
   19.1444   20.5387   26.6406 H   0  0  0  0  0  0  0  0  0  0  0  0
  1  2  1  0  0  0  0
  1  3  1  0  0  0  0
  1  4  1  0  0  0  0
  4  5  1  0  0  0  0
  4  6  1  0  0  0  0
  4  7  1  0  0  0  0
  7  8  1  0  0  0  0
  7  9  1  0  0  0  0
  7 10  1  0  0  0  0
 10 11  1  0  0  0  0
 10 12  1  0  0  0  0
 10 13  1  0  0  0  0
 13 14  1  0  0  0  0
 13 15  1  0  0  0  0
 13 16  1  0  0  0  0
 16 17  1  0  0  0  0
 16 18  1  0  0  0  0
 16 19  1  0  0  0  0
 19 20  1  0  0  0  0
 19 21  1  0  0  0  0
 19 22  1  0  0  0  0
  1 23  1  0  0  0  0
 23 24  1  0  0  0  0
 23 25  1  0  0  0  0
 23 26  1  0  0  0  0
M  END
> <VM2 Rank>
186

> <Conf_Id>
464

> <Probability>
0.00

> <Sum Probability>
100.00

> <Delta G>
5.923

> <G>
81.389

> <E>
48.350

> <-TS>
33.039

> <U+W>
26.889

> <U>
76.568

> <W>
-49.679

> <W(PB)>
-51.903

> <W(SA)>
2.224

> <Valence>
6.604

> <Coulomb>
70.083

> <VdW>
-0.119

> <VdW6>
-8.384

> <VdW12>
8.265

> <Bond>
0.244

> <Angle>
1.737

> <Pdih>
4.622

> <Idih>
0.000

> <Tether>
0.000

$$$$
VeraChem MOL file


 26 25  0  0  0  0  0  0  0  0999 V2000     
   20.4644   18.7704   25.6851 N   0  3  0  0  0  0  0  0  0  0  0  0
   21.1469   18.0355   25.4433 H   0  0  0  0  0  0  0  0  0  0  0  0
   19.7755   18.3130   26.3024 H   0  0  0  0  0  0  0  0  0  0  0  0
   19.7836   19.2862   24.4337 C   0  0  0  0  0  0  0  0  0  0  0  0
   20.5435   19.7715   23.8190 H   0  0  0  0  0  0  0  0  0  0  0  0
   19.0556   20.0430   24.7364 H   0  0  0  0  0  0  0  0  0  0  0  0
   19.0745   18.1810   23.6263 C   0  0  0  0  0  0  0  0  0  0  0  0
   19.7784   17.3795   23.3668 H   0  0  0  0  0  0  0  0  0  0  0  0
   18.3118   17.7252   24.2716 H   0  0  0  0  0  0  0  0  0  0  0  0
   18.3829   18.7160   22.3480 C   0  0  0  0  0  0  0  0  0  0  0  0
   17.9254   19.6942   22.5513 H   0  0  0  0  0  0  0  0  0  0  0  0
   17.5465   18.0440   22.1106 H   0  0  0  0  0  0  0  0  0  0  0  0
   19.2809   18.8022   21.0839 C   0  0  0  0  0  0  0  0  0  0  0  0
   19.6443   17.8015   20.8122 H   0  0  0  0  0  0  0  0  0  0  0  0
   18.6388   19.1152   20.2489 H   0  0  0  0  0  0  0  0  0  0  0  0
   20.4675   19.7957   21.1688 C   0  0  0  0  0  0  0  0  0  0  0  0
   20.2309   20.6194   21.8559 H   0  0  0  0  0  0  0  0  0  0  0  0
   20.6042   20.2619   20.1829 H   0  0  0  0  0  0  0  0  0  0  0  0
   21.8025   19.1196   21.5608 C   0  0  0  0  0  0  0  0  0  0  0  0
   21.7389   18.6044   22.5252 H   0  0  0  0  0  0  0  0  0  0  0  0
   22.6056   19.8645   21.6308 H   0  0  0  0  0  0  0  0  0  0  0  0
   22.1004   18.3798   20.8064 H   0  0  0  0  0  0  0  0  0  0  0  0
   21.1517   19.9189   26.4104 C   0  0  0  0  0  0  0  0  0  0  0  0
   21.8982   20.3654   25.7498 H   0  0  0  0  0  0  0  0  0  0  0  0
   20.4056   20.6676   26.6855 H   0  0  0  0  0  0  0  0  0  0  0  0
   21.6378   19.5346   27.3100 H   0  0  0  0  0  0  0  0  0  0  0  0
  1  2  1  0  0  0  0
  1  3  1  0  0  0  0
  1  4  1  0  0  0  0
  4  5  1  0  0  0  0
  4  6  1  0  0  0  0
  4  7  1  0  0  0  0
  7  8  1  0  0  0  0
  7  9  1  0  0  0  0
  7 10  1  0  0  0  0
 10 11  1  0  0  0  0
 10 12  1  0  0  0  0
 10 13  1  0  0  0  0
 13 14  1  0  0  0  0
 13 15  1  0  0  0  0
 13 16  1  0  0  0  0
 16 17  1  0  0  0  0
 16 18  1  0  0  0  0
 16 19  1  0  0  0  0
 19 20  1  0  0  0  0
 19 21  1  0  0  0  0
 19 22  1  0  0  0  0
  1 23  1  0  0  0  0
 23 24  1  0  0  0  0
 23 25  1  0  0  0  0
 23 26  1  0  0  0  0
M  END
> <VM2 Rank>
187

> <Conf_Id>
1245

> <Probability>
0.00

> <Sum Probability>
100.00

> <Delta G>
5.959

> <G>
81.425

> <E>
48.386

> <-TS>
33.039

> <U+W>
26.925

> <U>
76.568

> <W>
-49.643

> <W(PB)>
-51.858

> <W(SA)>
2.215

> <Valence>
6.604

> <Coulomb>
70.083

> <VdW>
-0.119

> <VdW6>
-8.383

> <VdW12>
8.264

> <Bond>
0.244

> <Angle>
1.738

> <Pdih>
4.622

> <Idih>
0.000

> <Tether>
0.000

$$$$
VeraChem MOL file


 26 25  0  0  0  0  0  0  0  0999 V2000     
   20.1155   19.6441   25.8028 N   0  3  0  0  0  0  0  0  0  0  0  0
   19.4952   19.1231   26.4416 H   0  0  0  0  0  0  0  0  0  0  0  0
   20.1478   20.6021   26.1861 H   0  0  0  0  0  0  0  0  0  0  0  0
   19.5222   19.6747   24.4044 C   0  0  0  0  0  0  0  0  0  0  0  0
   20.2266   20.1964   23.7545 H   0  0  0  0  0  0  0  0  0  0  0  0
   18.6066   20.2695   24.4544 H   0  0  0  0  0  0  0  0  0  0  0  0
   19.1822   18.2848   23.8236 C   0  0  0  0  0  0  0  0  0  0  0  0
   20.0781   17.6541   23.7633 H   0  0  0  0  0  0  0  0  0  0  0  0
   18.4993   17.7838   24.5224 H   0  0  0  0  0  0  0  0  0  0  0  0
   18.4961   18.3618   22.4370 C   0  0  0  0  0  0  0  0  0  0  0  0
   17.7956   19.2081   22.4127 H   0  0  0  0  0  0  0  0  0  0  0  0
   17.8754   17.4630   22.3172 H   0  0  0  0  0  0  0  0  0  0  0  0
   19.4530   18.4300   21.2158 C   0  0  0  0  0  0  0  0  0  0  0  0
   20.0709   17.5225   21.1718 H   0  0  0  0  0  0  0  0  0  0  0  0
   18.8298   18.4021   20.3112 H   0  0  0  0  0  0  0  0  0  0  0  0
   20.3507   19.6909   21.1361 C   0  0  0  0  0  0  0  0  0  0  0  0
   19.8654   20.5404   21.6352 H   0  0  0  0  0  0  0  0  0  0  0  0
   20.4507   19.9837   20.0815 H   0  0  0  0  0  0  0  0  0  0  0  0
   21.7724   19.4618   21.7005 C   0  0  0  0  0  0  0  0  0  0  0  0
   22.3048   18.6995   21.1170 H   0  0  0  0  0  0  0  0  0  0  0  0
   21.7541   19.1292   22.7437 H   0  0  0  0  0  0  0  0  0  0  0  0
   22.3602   20.3876   21.6530 H   0  0  0  0  0  0  0  0  0  0  0  0
   21.5159   19.0420   25.7967 C   0  0  0  0  0  0  0  0  0  0  0  0
   21.4645   18.0097   25.4449 H   0  0  0  0  0  0  0  0  0  0  0  0
   22.1558   19.6289   25.1343 H   0  0  0  0  0  0  0  0  0  0  0  0
   21.9182   19.0640   26.8120 H   0  0  0  0  0  0  0  0  0  0  0  0
  1  2  1  0  0  0  0
  1  3  1  0  0  0  0
  1  4  1  0  0  0  0
  4  5  1  0  0  0  0
  4  6  1  0  0  0  0
  4  7  1  0  0  0  0
  7  8  1  0  0  0  0
  7  9  1  0  0  0  0
  7 10  1  0  0  0  0
 10 11  1  0  0  0  0
 10 12  1  0  0  0  0
 10 13  1  0  0  0  0
 13 14  1  0  0  0  0
 13 15  1  0  0  0  0
 13 16  1  0  0  0  0
 16 17  1  0  0  0  0
 16 18  1  0  0  0  0
 16 19  1  0  0  0  0
 19 20  1  0  0  0  0
 19 21  1  0  0  0  0
 19 22  1  0  0  0  0
  1 23  1  0  0  0  0
 23 24  1  0  0  0  0
 23 25  1  0  0  0  0
 23 26  1  0  0  0  0
M  END
> <VM2 Rank>
188

> <Conf_Id>
1334

> <Probability>
0.00

> <Sum Probability>
100.00

> <Delta G>
5.959

> <G>
81.425

> <E>
48.034

> <-TS>
33.391

> <U+W>
26.572

> <U>
76.813

> <W>
-50.240

> <W(PB)>
-52.373

> <W(SA)>
2.133

> <Valence>
6.903

> <Coulomb>
69.931

> <VdW>
-0.021

> <VdW6>
-9.386

> <VdW12>
9.365

> <Bond>
0.281

> <Angle>
1.859

> <Pdih>
4.763

> <Idih>
0.000

> <Tether>
0.000

$$$$
VeraChem MOL file


 26 25  0  0  0  0  0  0  0  0999 V2000     
   19.6965   19.6012   25.7880 N   0  3  0  0  0  0  0  0  0  0  0  0
   19.4440   20.5301   26.1611 H   0  0  0  0  0  0  0  0  0  0  0  0
   20.3632   19.2122   26.4724 H   0  0  0  0  0  0  0  0  0  0  0  0
   20.3677   19.7613   24.4344 C   0  0  0  0  0  0  0  0  0  0  0  0
   21.1381   20.5288   24.5441 H   0  0  0  0  0  0  0  0  0  0  0  0
   19.6195   20.1342   23.7329 H   0  0  0  0  0  0  0  0  0  0  0  0
   21.0220   18.4732   23.8887 C   0  0  0  0  0  0  0  0  0  0  0  0
   21.7414   18.1159   24.6373 H   0  0  0  0  0  0  0  0  0  0  0  0
   20.2788   17.6747   23.7704 H   0  0  0  0  0  0  0  0  0  0  0  0
   21.7736   18.6975   22.5531 C   0  0  0  0  0  0  0  0  0  0  0  0
   22.5704   17.9440   22.4835 H   0  0  0  0  0  0  0  0  0  0  0  0
   22.2882   19.6683   22.5719 H   0  0  0  0  0  0  0  0  0  0  0  0
   20.9107   18.5794   21.2674 C   0  0  0  0  0  0  0  0  0  0  0  0
   21.5884   18.6848   20.4089 H   0  0  0  0  0  0  0  0  0  0  0  0
   20.4941   17.5659   21.1868 H   0  0  0  0  0  0  0  0  0  0  0  0
   19.7841   19.6328   21.1161 C   0  0  0  0  0  0  0  0  0  0  0  0
   19.7010   19.9069   20.0549 H   0  0  0  0  0  0  0  0  0  0  0  0
   20.0511   20.5595   21.6418 H   0  0  0  0  0  0  0  0  0  0  0  0
   18.4023   19.1165   21.5811 C   0  0  0  0  0  0  0  0  0  0  0  0
   18.0775   18.2665   20.9672 H   0  0  0  0  0  0  0  0  0  0  0  0
   17.6440   19.9044   21.4860 H   0  0  0  0  0  0  0  0  0  0  0  0
   18.4145   18.7870   22.6253 H   0  0  0  0  0  0  0  0  0  0  0  0
   18.4511   18.7279   25.6882 C   0  0  0  0  0  0  0  0  0  0  0  0
   18.7350   17.7300   25.3483 H   0  0  0  0  0  0  0  0  0  0  0  0
   17.9826   18.6608   26.6726 H   0  0  0  0  0  0  0  0  0  0  0  0
   17.7535   19.1777   24.9784 H   0  0  0  0  0  0  0  0  0  0  0  0
  1  2  1  0  0  0  0
  1  3  1  0  0  0  0
  1  4  1  0  0  0  0
  4  5  1  0  0  0  0
  4  6  1  0  0  0  0
  4  7  1  0  0  0  0
  7  8  1  0  0  0  0
  7  9  1  0  0  0  0
  7 10  1  0  0  0  0
 10 11  1  0  0  0  0
 10 12  1  0  0  0  0
 10 13  1  0  0  0  0
 13 14  1  0  0  0  0
 13 15  1  0  0  0  0
 13 16  1  0  0  0  0
 16 17  1  0  0  0  0
 16 18  1  0  0  0  0
 16 19  1  0  0  0  0
 19 20  1  0  0  0  0
 19 21  1  0  0  0  0
 19 22  1  0  0  0  0
  1 23  1  0  0  0  0
 23 24  1  0  0  0  0
 23 25  1  0  0  0  0
 23 26  1  0  0  0  0
M  END
> <VM2 Rank>
189

> <Conf_Id>
860

> <Probability>
0.00

> <Sum Probability>
100.00

> <Delta G>
5.987

> <G>
81.453

> <E>
48.062

> <-TS>
33.391

> <U+W>
26.600

> <U>
76.813

> <W>
-50.213

> <W(PB)>
-52.359

> <W(SA)>
2.146

> <Valence>
6.903

> <Coulomb>
69.931

> <VdW>
-0.021

> <VdW6>
-9.386

> <VdW12>
9.365

> <Bond>
0.281

> <Angle>
1.859

> <Pdih>
4.763

> <Idih>
0.000

> <Tether>
0.000

$$$$
VeraChem MOL file


 26 25  0  0  0  0  0  0  0  0999 V2000     
   20.9450   18.5887   25.4987 N   0  3  0  0  0  0  0  0  0  0  0  0
   21.9376   18.7907   25.6983 H   0  0  0  0  0  0  0  0  0  0  0  0
   20.9228   17.5915   25.2363 H   0  0  0  0  0  0  0  0  0  0  0  0
   20.4741   19.4496   24.3384 C   0  0  0  0  0  0  0  0  0  0  0  0
   21.2175   19.3547   23.5452 H   0  0  0  0  0  0  0  0  0  0  0  0
   20.4703   20.4902   24.6723 H   0  0  0  0  0  0  0  0  0  0  0  0
   19.0822   19.0735   23.7850 C   0  0  0  0  0  0  0  0  0  0  0  0
   19.0419   18.0055   23.5350 H   0  0  0  0  0  0  0  0  0  0  0  0
   18.3402   19.2325   24.5780 H   0  0  0  0  0  0  0  0  0  0  0  0
   18.6715   19.9237   22.5573 C   0  0  0  0  0  0  0  0  0  0  0  0
   19.0068   20.9615   22.6913 H   0  0  0  0  0  0  0  0  0  0  0  0
   17.5739   19.9706   22.5319 H   0  0  0  0  0  0  0  0  0  0  0  0
   19.1431   19.3865   21.1786 C   0  0  0  0  0  0  0  0  0  0  0  0
   18.7144   18.3914   20.9962 H   0  0  0  0  0  0  0  0  0  0  0  0
   18.7058   20.0374   20.4087 H   0  0  0  0  0  0  0  0  0  0  0  0
   20.6769   19.3554   20.9579 C   0  0  0  0  0  0  0  0  0  0  0  0
   21.1660   20.1425   21.5473 H   0  0  0  0  0  0  0  0  0  0  0  0
   20.8835   19.6004   19.9065 H   0  0  0  0  0  0  0  0  0  0  0  0
   21.3083   17.9746   21.2537 C   0  0  0  0  0  0  0  0  0  0  0  0
   20.9036   17.2088   20.5792 H   0  0  0  0  0  0  0  0  0  0  0  0
   21.1220   17.6451   22.2813 H   0  0  0  0  0  0  0  0  0  0  0  0
   22.3952   18.0080   21.1040 H   0  0  0  0  0  0  0  0  0  0  0  0
   20.1069   18.8380   26.7475 C   0  0  0  0  0  0  0  0  0  0  0  0
   20.1633   19.8962   27.0120 H   0  0  0  0  0  0  0  0  0  0  0  0
   19.0699   18.5601   26.5487 H   0  0  0  0  0  0  0  0  0  0  0  0
   20.4984   18.2317   27.5673 H   0  0  0  0  0  0  0  0  0  0  0  0
  1  2  1  0  0  0  0
  1  3  1  0  0  0  0
  1  4  1  0  0  0  0
  4  5  1  0  0  0  0
  4  6  1  0  0  0  0
  4  7  1  0  0  0  0
  7  8  1  0  0  0  0
  7  9  1  0  0  0  0
  7 10  1  0  0  0  0
 10 11  1  0  0  0  0
 10 12  1  0  0  0  0
 10 13  1  0  0  0  0
 13 14  1  0  0  0  0
 13 15  1  0  0  0  0
 13 16  1  0  0  0  0
 16 17  1  0  0  0  0
 16 18  1  0  0  0  0
 16 19  1  0  0  0  0
 19 20  1  0  0  0  0
 19 21  1  0  0  0  0
 19 22  1  0  0  0  0
  1 23  1  0  0  0  0
 23 24  1  0  0  0  0
 23 25  1  0  0  0  0
 23 26  1  0  0  0  0
M  END
> <VM2 Rank>
190

> <Conf_Id>
1103

> <Probability>
0.00

> <Sum Probability>
100.00

> <Delta G>
6.378

> <G>
81.844

> <E>
48.629

> <-TS>
33.215

> <U+W>
27.167

> <U>
77.189

> <W>
-50.021

> <W(PB)>
-52.230

> <W(SA)>
2.209

> <Valence>
6.919

> <Coulomb>
70.049

> <VdW>
0.220

> <VdW6>
-8.979

> <VdW12>
9.200

> <Bond>
0.284

> <Angle>
1.855

> <Pdih>
4.781

> <Idih>
0.000

> <Tether>
0.000

$$$$
VeraChem MOL file


 26 25  0  0  0  0  0  0  0  0999 V2000     
   19.8644   19.6722   25.4889 N   0  3  0  0  0  0  0  0  0  0  0  0
   20.0865   20.4644   24.8683 H   0  0  0  0  0  0  0  0  0  0  0  0
   20.0352   20.0216   26.4452 H   0  0  0  0  0  0  0  0  0  0  0  0
   20.7978   18.5099   25.1978 C   0  0  0  0  0  0  0  0  0  0  0  0
   20.4988   17.6820   25.8457 H   0  0  0  0  0  0  0  0  0  0  0  0
   21.8038   18.8179   25.4938 H   0  0  0  0  0  0  0  0  0  0  0  0
   20.8364   18.0241   23.7301 C   0  0  0  0  0  0  0  0  0  0  0  0
   21.4769   17.1329   23.7005 H   0  0  0  0  0  0  0  0  0  0  0  0
   19.8421   17.6865   23.4172 H   0  0  0  0  0  0  0  0  0  0  0  0
   21.4162   19.0685   22.7382 C   0  0  0  0  0  0  0  0  0  0  0  0
   21.9077   18.5443   21.9071 H   0  0  0  0  0  0  0  0  0  0  0  0
   22.2180   19.6254   23.2426 H   0  0  0  0  0  0  0  0  0  0  0  0
   20.3817   20.0717   22.1580 C   0  0  0  0  0  0  0  0  0  0  0  0
   19.5774   20.2701   22.8750 H   0  0  0  0  0  0  0  0  0  0  0  0
   20.8882   21.0346   22.0043 H   0  0  0  0  0  0  0  0  0  0  0  0
   19.7685   19.6454   20.7997 C   0  0  0  0  0  0  0  0  0  0  0  0
   20.5668   19.5342   20.0526 H   0  0  0  0  0  0  0  0  0  0  0  0
   19.1241   20.4583   20.4365 H   0  0  0  0  0  0  0  0  0  0  0  0
   18.9374   18.3449   20.8609 C   0  0  0  0  0  0  0  0  0  0  0  0
   19.5702   17.4766   21.0826 H   0  0  0  0  0  0  0  0  0  0  0  0
   18.4482   18.1566   19.8965 H   0  0  0  0  0  0  0  0  0  0  0  0
   18.1539   18.4111   21.6267 H   0  0  0  0  0  0  0  0  0  0  0  0
   18.4057   19.2533   25.3434 C   0  0  0  0  0  0  0  0  0  0  0  0
   17.7638   20.1042   25.5819 H   0  0  0  0  0  0  0  0  0  0  0  0
   18.2231   18.9309   24.3164 H   0  0  0  0  0  0  0  0  0  0  0  0
   18.1989   18.4311   26.0320 H   0  0  0  0  0  0  0  0  0  0  0  0
  1  2  1  0  0  0  0
  1  3  1  0  0  0  0
  1  4  1  0  0  0  0
  4  5  1  0  0  0  0
  4  6  1  0  0  0  0
  4  7  1  0  0  0  0
  7  8  1  0  0  0  0
  7  9  1  0  0  0  0
  7 10  1  0  0  0  0
 10 11  1  0  0  0  0
 10 12  1  0  0  0  0
 10 13  1  0  0  0  0
 13 14  1  0  0  0  0
 13 15  1  0  0  0  0
 13 16  1  0  0  0  0
 16 17  1  0  0  0  0
 16 18  1  0  0  0  0
 16 19  1  0  0  0  0
 19 20  1  0  0  0  0
 19 21  1  0  0  0  0
 19 22  1  0  0  0  0
  1 23  1  0  0  0  0
 23 24  1  0  0  0  0
 23 25  1  0  0  0  0
 23 26  1  0  0  0  0
M  END
> <VM2 Rank>
191

> <Conf_Id>
1372

> <Probability>
0.00

> <Sum Probability>
100.00

> <Delta G>
6.413

> <G>
81.879

> <E>
48.644

> <-TS>
33.235

> <U+W>
27.182

> <U>
77.340

> <W>
-50.158

> <W(PB)>
-52.285

> <W(SA)>
2.128

> <Valence>
6.847

> <Coulomb>
70.349

> <VdW>
0.144

> <VdW6>
-9.591

> <VdW12>
9.735

> <Bond>
0.315

> <Angle>
1.724

> <Pdih>
4.807

> <Idih>
0.000

> <Tether>
0.000

$$$$
VeraChem MOL file


 26 25  0  0  0  0  0  0  0  0999 V2000     
   20.6270   18.9953   25.2918 N   0  3  0  0  0  0  0  0  0  0  0  0
   20.9660   19.8336   24.7964 H   0  0  0  0  0  0  0  0  0  0  0  0
   21.1951   18.2104   24.9376 H   0  0  0  0  0  0  0  0  0  0  0  0
   19.1642   18.7662   24.9700 C   0  0  0  0  0  0  0  0  0  0  0  0
   18.5997   19.6166   25.3606 H   0  0  0  0  0  0  0  0  0  0  0  0
   18.8462   17.8717   25.5115 H   0  0  0  0  0  0  0  0  0  0  0  0
   18.8529   18.5886   23.4684 C   0  0  0  0  0  0  0  0  0  0  0  0
   19.3904   17.7166   23.0772 H   0  0  0  0  0  0  0  0  0  0  0  0
   17.7848   18.3495   23.3813 H   0  0  0  0  0  0  0  0  0  0  0  0
   19.1410   19.8542   22.6167 C   0  0  0  0  0  0  0  0  0  0  0  0
   18.9225   20.7451   23.2218 H   0  0  0  0  0  0  0  0  0  0  0  0
   18.4331   19.8952   21.7774 H   0  0  0  0  0  0  0  0  0  0  0  0
   20.5883   19.9510   22.0608 C   0  0  0  0  0  0  0  0  0  0  0  0
   20.8796   21.0105   22.0443 H   0  0  0  0  0  0  0  0  0  0  0  0
   21.3026   19.4552   22.7285 H   0  0  0  0  0  0  0  0  0  0  0  0
   20.7569   19.3970   20.6230 C   0  0  0  0  0  0  0  0  0  0  0  0
   21.7869   19.5897   20.2916 H   0  0  0  0  0  0  0  0  0  0  0  0
   20.1070   19.9545   19.9341 H   0  0  0  0  0  0  0  0  0  0  0  0
   20.4682   17.8852   20.4914 C   0  0  0  0  0  0  0  0  0  0  0  0
   21.0837   17.3024   21.1887 H   0  0  0  0  0  0  0  0  0  0  0  0
   20.6945   17.5385   19.4749 H   0  0  0  0  0  0  0  0  0  0  0  0
   19.4123   17.6611   20.6874 H   0  0  0  0  0  0  0  0  0  0  0  0
   20.8094   19.1525   26.7948 C   0  0  0  0  0  0  0  0  0  0  0  0
   20.2227   20.0064   27.1404 H   0  0  0  0  0  0  0  0  0  0  0  0
   20.4691   18.2430   27.2947 H   0  0  0  0  0  0  0  0  0  0  0  0
   21.8669   19.3191   27.0120 H   0  0  0  0  0  0  0  0  0  0  0  0
  1  2  1  0  0  0  0
  1  3  1  0  0  0  0
  1  4  1  0  0  0  0
  4  5  1  0  0  0  0
  4  6  1  0  0  0  0
  4  7  1  0  0  0  0
  7  8  1  0  0  0  0
  7  9  1  0  0  0  0
  7 10  1  0  0  0  0
 10 11  1  0  0  0  0
 10 12  1  0  0  0  0
 10 13  1  0  0  0  0
 13 14  1  0  0  0  0
 13 15  1  0  0  0  0
 13 16  1  0  0  0  0
 16 17  1  0  0  0  0
 16 18  1  0  0  0  0
 16 19  1  0  0  0  0
 19 20  1  0  0  0  0
 19 21  1  0  0  0  0
 19 22  1  0  0  0  0
  1 23  1  0  0  0  0
 23 24  1  0  0  0  0
 23 25  1  0  0  0  0
 23 26  1  0  0  0  0
M  END
> <VM2 Rank>
192

> <Conf_Id>
542

> <Probability>
0.00

> <Sum Probability>
100.00

> <Delta G>
6.507

> <G>
81.973

> <E>
49.206

> <-TS>
32.767

> <U+W>
27.744

> <U>
77.265

> <W>
-49.522

> <W(PB)>
-51.736

> <W(SA)>
2.214

> <Valence>
6.549

> <Coulomb>
70.466

> <VdW>
0.250

> <VdW6>
-8.286

> <VdW12>
8.536

> <Bond>
0.272

> <Angle>
1.406

> <Pdih>
4.871

> <Idih>
0.000

> <Tether>
0.000

$$$$
VeraChem MOL file


 26 25  0  0  0  0  0  0  0  0999 V2000     
   20.7480   18.8777   24.8498 N   0  3  0  0  0  0  0  0  0  0  0  0
   21.0796   18.7957   23.8769 H   0  0  0  0  0  0  0  0  0  0  0  0
   20.8416   17.9349   25.2590 H   0  0  0  0  0  0  0  0  0  0  0  0
   19.2937   19.3080   24.8592 C   0  0  0  0  0  0  0  0  0  0  0  0
   19.2295   20.3264   24.4683 H   0  0  0  0  0  0  0  0  0  0  0  0
   18.9738   19.3242   25.9042 H   0  0  0  0  0  0  0  0  0  0  0  0
   18.3570   18.3803   24.0582 C   0  0  0  0  0  0  0  0  0  0  0  0
   18.6030   17.3313   24.2705 H   0  0  0  0  0  0  0  0  0  0  0  0
   17.3366   18.5295   24.4358 H   0  0  0  0  0  0  0  0  0  0  0  0
   18.3360   18.6252   22.5252 C   0  0  0  0  0  0  0  0  0  0  0  0
   17.9569   19.6343   22.3118 H   0  0  0  0  0  0  0  0  0  0  0  0
   17.5964   17.9370   22.0928 H   0  0  0  0  0  0  0  0  0  0  0  0
   19.6862   18.3978   21.7979 C   0  0  0  0  0  0  0  0  0  0  0  0
   20.2792   17.6400   22.3268 H   0  0  0  0  0  0  0  0  0  0  0  0
   19.4804   17.9707   20.8064 H   0  0  0  0  0  0  0  0  0  0  0  0
   20.4967   19.7015   21.5933 C   0  0  0  0  0  0  0  0  0  0  0  0
   20.5976   20.2582   22.5325 H   0  0  0  0  0  0  0  0  0  0  0  0
   19.9491   20.3637   20.9078 H   0  0  0  0  0  0  0  0  0  0  0  0
   21.8980   19.4176   21.0122 C   0  0  0  0  0  0  0  0  0  0  0  0
   21.8265   18.9060   20.0434 H   0  0  0  0  0  0  0  0  0  0  0  0
   22.4897   18.7866   21.6879 H   0  0  0  0  0  0  0  0  0  0  0  0
   22.4500   20.3538   20.8573 H   0  0  0  0  0  0  0  0  0  0  0  0
   21.5925   19.8820   25.6211 C   0  0  0  0  0  0  0  0  0  0  0  0
   21.5005   20.8641   25.1524 H   0  0  0  0  0  0  0  0  0  0  0  0
   21.2388   19.9301   26.6534 H   0  0  0  0  0  0  0  0  0  0  0  0
   22.6364   19.5609   25.6037 H   0  0  0  0  0  0  0  0  0  0  0  0
  1  2  1  0  0  0  0
  1  3  1  0  0  0  0
  1  4  1  0  0  0  0
  4  5  1  0  0  0  0
  4  6  1  0  0  0  0
  4  7  1  0  0  0  0
  7  8  1  0  0  0  0
  7  9  1  0  0  0  0
  7 10  1  0  0  0  0
 10 11  1  0  0  0  0
 10 12  1  0  0  0  0
 10 13  1  0  0  0  0
 13 14  1  0  0  0  0
 13 15  1  0  0  0  0
 13 16  1  0  0  0  0
 16 17  1  0  0  0  0
 16 18  1  0  0  0  0
 16 19  1  0  0  0  0
 19 20  1  0  0  0  0
 19 21  1  0  0  0  0
 19 22  1  0  0  0  0
  1 23  1  0  0  0  0
 23 24  1  0  0  0  0
 23 25  1  0  0  0  0
 23 26  1  0  0  0  0
M  END
> <VM2 Rank>
193

> <Conf_Id>
416

> <Probability>
0.00

> <Sum Probability>
100.00

> <Delta G>
7.039

> <G>
82.505

> <E>
49.519

> <-TS>
32.986

> <U+W>
28.058

> <U>
76.548

> <W>
-48.491

> <W(PB)>
-50.669

> <W(SA)>
2.178

> <Valence>
5.809

> <Coulomb>
71.051

> <VdW>
-0.311

> <VdW6>
-8.912

> <VdW12>
8.601

> <Bond>
0.232

> <Angle>
1.493

> <Pdih>
4.083

> <Idih>
0.000

> <Tether>
0.000

$$$$
VeraChem MOL file


 26 25  0  0  0  0  0  0  0  0999 V2000     
   19.3006   18.7296   24.7984 N   0  3  0  0  0  0  0  0  0  0  0  0
   19.3712   17.7844   25.2066 H   0  0  0  0  0  0  0  0  0  0  0  0
   19.0614   18.5894   23.8052 H   0  0  0  0  0  0  0  0  0  0  0  0
   20.6334   19.4451   24.9067 C   0  0  0  0  0  0  0  0  0  0  0  0
   20.8695   19.5181   25.9713 H   0  0  0  0  0  0  0  0  0  0  0  0
   20.5176   20.4582   24.5140 H   0  0  0  0  0  0  0  0  0  0  0  0
   21.7923   18.7319   24.1799 C   0  0  0  0  0  0  0  0  0  0  0  0
   22.7323   19.0816   24.6269 H   0  0  0  0  0  0  0  0  0  0  0  0
   21.7493   17.6533   24.3819 H   0  0  0  0  0  0  0  0  0  0  0  0
   21.8706   18.9871   22.6504 C   0  0  0  0  0  0  0  0  0  0  0  0
   22.7626   18.4658   22.2758 H   0  0  0  0  0  0  0  0  0  0  0  0
   22.0516   20.0535   22.4569 H   0  0  0  0  0  0  0  0  0  0  0  0
   20.6486   18.4964   21.8319 C   0  0  0  0  0  0  0  0  0  0  0  0
   21.0055   18.1269   20.8603 H   0  0  0  0  0  0  0  0  0  0  0  0
   20.1857   17.6304   22.3234 H   0  0  0  0  0  0  0  0  0  0  0  0
   19.6075   19.6105   21.5617 C   0  0  0  0  0  0  0  0  0  0  0  0
   20.0562   20.3746   20.9114 H   0  0  0  0  0  0  0  0  0  0  0  0
   19.3308   20.1287   22.4876 H   0  0  0  0  0  0  0  0  0  0  0  0
   18.3366   19.0530   20.8865 C   0  0  0  0  0  0  0  0  0  0  0  0
   18.5775   18.5732   19.9288 H   0  0  0  0  0  0  0  0  0  0  0  0
   17.6188   19.8592   20.6866 H   0  0  0  0  0  0  0  0  0  0  0  0
   17.8391   18.3106   21.5238 H   0  0  0  0  0  0  0  0  0  0  0  0
   18.2184   19.5366   25.5015 C   0  0  0  0  0  0  0  0  0  0  0  0
   18.4819   19.6478   26.5556 H   0  0  0  0  0  0  0  0  0  0  0  0
   18.1425   20.5205   25.0334 H   0  0  0  0  0  0  0  0  0  0  0  0
   17.2649   19.0112   25.4132 H   0  0  0  0  0  0  0  0  0  0  0  0
  1  2  1  0  0  0  0
  1  3  1  0  0  0  0
  1  4  1  0  0  0  0
  4  5  1  0  0  0  0
  4  6  1  0  0  0  0
  4  7  1  0  0  0  0
  7  8  1  0  0  0  0
  7  9  1  0  0  0  0
  7 10  1  0  0  0  0
 10 11  1  0  0  0  0
 10 12  1  0  0  0  0
 10 13  1  0  0  0  0
 13 14  1  0  0  0  0
 13 15  1  0  0  0  0
 13 16  1  0  0  0  0
 16 17  1  0  0  0  0
 16 18  1  0  0  0  0
 16 19  1  0  0  0  0
 19 20  1  0  0  0  0
 19 21  1  0  0  0  0
 19 22  1  0  0  0  0
  1 23  1  0  0  0  0
 23 24  1  0  0  0  0
 23 25  1  0  0  0  0
 23 26  1  0  0  0  0
M  END
> <VM2 Rank>
194

> <Conf_Id>
237

> <Probability>
0.00

> <Sum Probability>
100.00

> <Delta G>
7.049

> <G>
82.515

> <E>
49.529

> <-TS>
32.986

> <U+W>
28.067

> <U>
76.549

> <W>
-48.481

> <W(PB)>
-50.645

> <W(SA)>
2.163

> <Valence>
5.809

> <Coulomb>
71.051

> <VdW>
-0.311

> <VdW6>
-8.913

> <VdW12>
8.602

> <Bond>
0.232

> <Angle>
1.493

> <Pdih>
4.084

> <Idih>
0.000

> <Tether>
0.000

$$$$
VeraChem MOL file


 26 25  0  0  0  0  0  0  0  0999 V2000     
   19.3339   19.1846   25.0740 N   0  3  0  0  0  0  0  0  0  0  0  0
   19.0145   18.3695   25.6204 H   0  0  0  0  0  0  0  0  0  0  0  0
   18.8203   19.1408   24.1816 H   0  0  0  0  0  0  0  0  0  0  0  0
   20.8246   19.0853   24.8138 C   0  0  0  0  0  0  0  0  0  0  0  0
   21.3169   19.0719   25.7895 H   0  0  0  0  0  0  0  0  0  0  0  0
   21.1465   19.9845   24.2827 H   0  0  0  0  0  0  0  0  0  0  0  0
   21.2423   17.8310   24.0196 C   0  0  0  0  0  0  0  0  0  0  0  0
   22.2978   17.6294   24.2457 H   0  0  0  0  0  0  0  0  0  0  0  0
   20.6871   16.9564   24.3837 H   0  0  0  0  0  0  0  0  0  0  0  0
   21.1034   17.9524   22.4784 C   0  0  0  0  0  0  0  0  0  0  0  0
   21.4879   17.0208   22.0406 H   0  0  0  0  0  0  0  0  0  0  0  0
   21.7689   18.7432   22.1098 H   0  0  0  0  0  0  0  0  0  0  0  0
   19.6572   18.1649   21.9550 C   0  0  0  0  0  0  0  0  0  0  0  0
   19.5419   17.6203   21.0075 H   0  0  0  0  0  0  0  0  0  0  0  0
   18.9414   17.6954   22.6426 H   0  0  0  0  0  0  0  0  0  0  0  0
   19.2722   19.6473   21.7084 C   0  0  0  0  0  0  0  0  0  0  0  0
   19.5154   20.2674   22.5796 H   0  0  0  0  0  0  0  0  0  0  0  0
   18.1832   19.7125   21.5752 H   0  0  0  0  0  0  0  0  0  0  0  0
   19.9542   20.2458   20.4566 C   0  0  0  0  0  0  0  0  0  0  0  0
   19.6108   21.2745   20.2869 H   0  0  0  0  0  0  0  0  0  0  0  0
   19.7141   19.6616   19.5587 H   0  0  0  0  0  0  0  0  0  0  0  0
   21.0454   20.2750   20.5627 H   0  0  0  0  0  0  0  0  0  0  0  0
   19.0202   20.4788   25.8113 C   0  0  0  0  0  0  0  0  0  0  0  0
   19.5534   20.4866   26.7645 H   0  0  0  0  0  0  0  0  0  0  0  0
   19.3402   21.3266   25.2016 H   0  0  0  0  0  0  0  0  0  0  0  0
   17.9443   20.5378   25.9902 H   0  0  0  0  0  0  0  0  0  0  0  0
  1  2  1  0  0  0  0
  1  3  1  0  0  0  0
  1  4  1  0  0  0  0
  4  5  1  0  0  0  0
  4  6  1  0  0  0  0
  4  7  1  0  0  0  0
  7  8  1  0  0  0  0
  7  9  1  0  0  0  0
  7 10  1  0  0  0  0
 10 11  1  0  0  0  0
 10 12  1  0  0  0  0
 10 13  1  0  0  0  0
 13 14  1  0  0  0  0
 13 15  1  0  0  0  0
 13 16  1  0  0  0  0
 16 17  1  0  0  0  0
 16 18  1  0  0  0  0
 16 19  1  0  0  0  0
 19 20  1  0  0  0  0
 19 21  1  0  0  0  0
 19 22  1  0  0  0  0
  1 23  1  0  0  0  0
 23 24  1  0  0  0  0
 23 25  1  0  0  0  0
 23 26  1  0  0  0  0
M  END
> <VM2 Rank>
195

> <Conf_Id>
833

> <Probability>
0.00

> <Sum Probability>
100.00

> <Delta G>
7.131

> <G>
82.597

> <E>
49.617

> <-TS>
32.980

> <U+W>
28.155

> <U>
77.517

> <W>
-49.362

> <W(PB)>
-51.556

> <W(SA)>
2.194

> <Valence>
6.532

> <Coulomb>
71.087

> <VdW>
-0.102

> <VdW6>
-9.038

> <VdW12>
8.936

> <Bond>
0.274

> <Angle>
1.677

> <Pdih>
4.581

> <Idih>
0.000

> <Tether>
0.000

$$$$
VeraChem MOL file


 26 25  0  0  0  0  0  0  0  0999 V2000     
   20.6039   19.3152   25.1189 N   0  3  0  0  0  0  0  0  0  0  0  0
   21.1769   19.3831   24.2650 H   0  0  0  0  0  0  0  0  0  0  0  0
   21.0433   18.5781   25.6922 H   0  0  0  0  0  0  0  0  0  0  0  0
   19.1865   18.9169   24.7559 C   0  0  0  0  0  0  0  0  0  0  0  0
   18.7265   19.7357   24.1971 H   0  0  0  0  0  0  0  0  0  0  0  0
   18.6401   18.7966   25.6948 H   0  0  0  0  0  0  0  0  0  0  0  0
   19.0889   17.6097   23.9433 C   0  0  0  0  0  0  0  0  0  0  0  0
   19.7835   16.8636   24.3517 H   0  0  0  0  0  0  0  0  0  0  0  0
   18.0833   17.1962   24.0965 H   0  0  0  0  0  0  0  0  0  0  0  0
   19.3078   17.7679   22.4148 C   0  0  0  0  0  0  0  0  0  0  0  0
   18.5229   18.4097   21.9949 H   0  0  0  0  0  0  0  0  0  0  0  0
   19.1521   16.7808   21.9578 H   0  0  0  0  0  0  0  0  0  0  0  0
   20.7136   18.2734   21.9924 C   0  0  0  0  0  0  0  0  0  0  0  0
   21.4600   17.9542   22.7318 H   0  0  0  0  0  0  0  0  0  0  0  0
   21.0031   17.7705   21.0592 H   0  0  0  0  0  0  0  0  0  0  0  0
   20.8058   19.8049   21.7626 C   0  0  0  0  0  0  0  0  0  0  0  0
   21.8655   20.0909   21.7055 H   0  0  0  0  0  0  0  0  0  0  0  0
   20.3814   20.3563   22.6102 H   0  0  0  0  0  0  0  0  0  0  0  0
   20.1057   20.2614   20.4620 C   0  0  0  0  0  0  0  0  0  0  0  0
   20.2440   21.3396   20.3093 H   0  0  0  0  0  0  0  0  0  0  0  0
   19.0266   20.0676   20.4913 H   0  0  0  0  0  0  0  0  0  0  0  0
   20.5216   19.7446   19.5873 H   0  0  0  0  0  0  0  0  0  0  0  0
   20.5957   20.6407   25.8671 C   0  0  0  0  0  0  0  0  0  0  0  0
   20.1536   21.4102   25.2304 H   0  0  0  0  0  0  0  0  0  0  0  0
   20.0068   20.5332   26.7806 H   0  0  0  0  0  0  0  0  0  0  0  0
   21.6220   20.9158   26.1203 H   0  0  0  0  0  0  0  0  0  0  0  0
  1  2  1  0  0  0  0
  1  3  1  0  0  0  0
  1  4  1  0  0  0  0
  4  5  1  0  0  0  0
  4  6  1  0  0  0  0
  4  7  1  0  0  0  0
  7  8  1  0  0  0  0
  7  9  1  0  0  0  0
  7 10  1  0  0  0  0
 10 11  1  0  0  0  0
 10 12  1  0  0  0  0
 10 13  1  0  0  0  0
 13 14  1  0  0  0  0
 13 15  1  0  0  0  0
 13 16  1  0  0  0  0
 16 17  1  0  0  0  0
 16 18  1  0  0  0  0
 16 19  1  0  0  0  0
 19 20  1  0  0  0  0
 19 21  1  0  0  0  0
 19 22  1  0  0  0  0
  1 23  1  0  0  0  0
 23 24  1  0  0  0  0
 23 25  1  0  0  0  0
 23 26  1  0  0  0  0
M  END
> <VM2 Rank>
196

> <Conf_Id>
260

> <Probability>
0.00

> <Sum Probability>
100.00

> <Delta G>
7.244

> <G>
82.710

> <E>
49.730

> <-TS>
32.980

> <U+W>
28.269

> <U>
77.517

> <W>
-49.248

> <W(PB)>
-51.417

> <W(SA)>
2.168

> <Valence>
6.532

> <Coulomb>
71.087

> <VdW>
-0.102

> <VdW6>
-9.038

> <VdW12>
8.936

> <Bond>
0.274

> <Angle>
1.677

> <Pdih>
4.581

> <Idih>
0.000

> <Tether>
0.000

$$$$
VeraChem MOL file


 26 25  0  0  0  0  0  0  0  0999 V2000     
   19.0545   18.6611   24.6572 N   0  3  0  0  0  0  0  0  0  0  0  0
   19.1850   18.2941   23.7026 H   0  0  0  0  0  0  0  0  0  0  0  0
   18.0327   18.7106   24.7978 H   0  0  0  0  0  0  0  0  0  0  0  0
   19.6497   20.0571   24.7563 C   0  0  0  0  0  0  0  0  0  0  0  0
   19.5590   20.3678   25.8001 H   0  0  0  0  0  0  0  0  0  0  0  0
   19.0343   20.7292   24.1530 H   0  0  0  0  0  0  0  0  0  0  0  0
   21.1251   20.1883   24.3131 C   0  0  0  0  0  0  0  0  0  0  0  0
   21.5148   21.1241   24.7348 H   0  0  0  0  0  0  0  0  0  0  0  0
   21.7291   19.3898   24.7619 H   0  0  0  0  0  0  0  0  0  0  0  0
   21.3551   20.2301   22.7784 C   0  0  0  0  0  0  0  0  0  0  0  0
   22.4293   20.3905   22.6113 H   0  0  0  0  0  0  0  0  0  0  0  0
   20.8572   21.1100   22.3479 H   0  0  0  0  0  0  0  0  0  0  0  0
   20.9361   18.9487   22.0133 C   0  0  0  0  0  0  0  0  0  0  0  0
   21.6694   18.7609   21.2165 H   0  0  0  0  0  0  0  0  0  0  0  0
   20.9927   18.0753   22.6767 H   0  0  0  0  0  0  0  0  0  0  0  0
   19.5388   19.0637   21.3562 C   0  0  0  0  0  0  0  0  0  0  0  0
   19.5750   19.8214   20.5606 H   0  0  0  0  0  0  0  0  0  0  0  0
   18.7912   19.4191   22.0754 H   0  0  0  0  0  0  0  0  0  0  0  0
   19.0778   17.7190   20.7551 C   0  0  0  0  0  0  0  0  0  0  0  0
   19.7833   17.3669   19.9911 H   0  0  0  0  0  0  0  0  0  0  0  0
   18.0937   17.8240   20.2799 H   0  0  0  0  0  0  0  0  0  0  0  0
   18.9972   16.9431   21.5273 H   0  0  0  0  0  0  0  0  0  0  0  0
   19.6709   17.7219   25.6874 C   0  0  0  0  0  0  0  0  0  0  0  0
   20.7412   17.6246   25.4955 H   0  0  0  0  0  0  0  0  0  0  0  0
   19.5093   18.1311   26.6870 H   0  0  0  0  0  0  0  0  0  0  0  0
   19.1937   16.7426   25.6088 H   0  0  0  0  0  0  0  0  0  0  0  0
  1  2  1  0  0  0  0
  1  3  1  0  0  0  0
  1  4  1  0  0  0  0
  4  5  1  0  0  0  0
  4  6  1  0  0  0  0
  4  7  1  0  0  0  0
  7  8  1  0  0  0  0
  7  9  1  0  0  0  0
  7 10  1  0  0  0  0
 10 11  1  0  0  0  0
 10 12  1  0  0  0  0
 10 13  1  0  0  0  0
 13 14  1  0  0  0  0
 13 15  1  0  0  0  0
 13 16  1  0  0  0  0
 16 17  1  0  0  0  0
 16 18  1  0  0  0  0
 16 19  1  0  0  0  0
 19 20  1  0  0  0  0
 19 21  1  0  0  0  0
 19 22  1  0  0  0  0
  1 23  1  0  0  0  0
 23 24  1  0  0  0  0
 23 25  1  0  0  0  0
 23 26  1  0  0  0  0
M  END
> <VM2 Rank>
197

> <Conf_Id>
966

> <Probability>
0.00

> <Sum Probability>
100.00

> <Delta G>
7.513

> <G>
82.979

> <E>
49.845

> <-TS>
33.133

> <U+W>
28.384

> <U>
77.224

> <W>
-48.841

> <W(PB)>
-51.015

> <W(SA)>
2.174

> <Valence>
6.170

> <Coulomb>
71.062

> <VdW>
-0.008

> <VdW6>
-9.541

> <VdW12>
9.533

> <Bond>
0.273

> <Angle>
1.632

> <Pdih>
4.266

> <Idih>
0.000

> <Tether>
0.000

$$$$
VeraChem MOL file


 26 25  0  0  0  0  0  0  0  0999 V2000     
   21.0115   18.8590   24.7267 N   0  3  0  0  0  0  0  0  0  0  0  0
   21.9903   19.1107   24.9380 H   0  0  0  0  0  0  0  0  0  0  0  0
   21.0242   18.4798   23.7679 H   0  0  0  0  0  0  0  0  0  0  0  0
   20.1438   20.1071   24.7736 C   0  0  0  0  0  0  0  0  0  0  0  0
   20.6532   20.8928   24.2101 H   0  0  0  0  0  0  0  0  0  0  0  0
   20.0972   20.4224   25.8191 H   0  0  0  0  0  0  0  0  0  0  0  0
   18.7068   19.9437   24.2273 C   0  0  0  0  0  0  0  0  0  0  0  0
   18.2446   19.0374   24.6384 H   0  0  0  0  0  0  0  0  0  0  0  0
   18.1092   20.7797   24.6140 H   0  0  0  0  0  0  0  0  0  0  0  0
   18.5810   19.9496   22.6801 C   0  0  0  0  0  0  0  0  0  0  0  0
   18.9219   20.9143   22.2792 H   0  0  0  0  0  0  0  0  0  0  0  0
   17.5109   19.8930   22.4369 H   0  0  0  0  0  0  0  0  0  0  0  0
   19.3005   18.7833   21.9553 C   0  0  0  0  0  0  0  0  0  0  0  0
   19.3733   17.9115   22.6192 H   0  0  0  0  0  0  0  0  0  0  0  0
   18.6773   18.4583   21.1104 H   0  0  0  0  0  0  0  0  0  0  0  0
   20.6891   19.1800   21.3970 C   0  0  0  0  0  0  0  0  0  0  0  0
   21.2983   19.6725   22.1644 H   0  0  0  0  0  0  0  0  0  0  0  0
   20.5581   19.9209   20.5956 H   0  0  0  0  0  0  0  0  0  0  0  0
   21.4507   17.9590   20.8391 C   0  0  0  0  0  0  0  0  0  0  0  0
   20.8852   17.4785   20.0300 H   0  0  0  0  0  0  0  0  0  0  0  0
   21.6303   17.2093   21.6204 H   0  0  0  0  0  0  0  0  0  0  0  0
   22.4247   18.2621   20.4333 H   0  0  0  0  0  0  0  0  0  0  0  0
   20.5246   17.8084   25.7180 C   0  0  0  0  0  0  0  0  0  0  0  0
   20.5308   18.2348   26.7235 H   0  0  0  0  0  0  0  0  0  0  0  0
   19.5116   17.5004   25.4524 H   0  0  0  0  0  0  0  0  0  0  0  0
   21.1924   16.9449   25.6801 H   0  0  0  0  0  0  0  0  0  0  0  0
  1  2  1  0  0  0  0
  1  3  1  0  0  0  0
  1  4  1  0  0  0  0
  4  5  1  0  0  0  0
  4  6  1  0  0  0  0
  4  7  1  0  0  0  0
  7  8  1  0  0  0  0
  7  9  1  0  0  0  0
  7 10  1  0  0  0  0
 10 11  1  0  0  0  0
 10 12  1  0  0  0  0
 10 13  1  0  0  0  0
 13 14  1  0  0  0  0
 13 15  1  0  0  0  0
 13 16  1  0  0  0  0
 16 17  1  0  0  0  0
 16 18  1  0  0  0  0
 16 19  1  0  0  0  0
 19 20  1  0  0  0  0
 19 21  1  0  0  0  0
 19 22  1  0  0  0  0
  1 23  1  0  0  0  0
 23 24  1  0  0  0  0
 23 25  1  0  0  0  0
 23 26  1  0  0  0  0
M  END
> <VM2 Rank>
198

> <Conf_Id>
411

> <Probability>
0.00

> <Sum Probability>
100.00

> <Delta G>
7.536

> <G>
83.002

> <E>
49.869

> <-TS>
33.133

> <U+W>
28.407

> <U>
77.224

> <W>
-48.817

> <W(PB)>
-51.000

> <W(SA)>
2.183

> <Valence>
6.170

> <Coulomb>
71.062

> <VdW>
-0.008

> <VdW6>
-9.540

> <VdW12>
9.533

> <Bond>
0.273

> <Angle>
1.632

> <Pdih>
4.265

> <Idih>
0.000

> <Tether>
0.000

$$$$
VeraChem MOL file


 26 25  0  0  0  0  0  0  0  0999 V2000     
   19.4198   18.5070   24.7816 N   0  3  0  0  0  0  0  0  0  0  0  0
   19.5708   17.5051   24.5882 H   0  0  0  0  0  0  0  0  0  0  0  0
   18.9065   18.8739   23.9675 H   0  0  0  0  0  0  0  0  0  0  0  0
   20.7520   19.2162   24.9108 C   0  0  0  0  0  0  0  0  0  0  0  0
   21.2951   18.7269   25.7234 H   0  0  0  0  0  0  0  0  0  0  0  0
   20.5624   20.2512   25.2061 H   0  0  0  0  0  0  0  0  0  0  0  0
   21.6209   19.1937   23.6353 C   0  0  0  0  0  0  0  0  0  0  0  0
   22.6556   19.3906   23.9458 H   0  0  0  0  0  0  0  0  0  0  0  0
   21.6396   18.1927   23.1907 H   0  0  0  0  0  0  0  0  0  0  0  0
   21.2408   20.2707   22.5858 C   0  0  0  0  0  0  0  0  0  0  0  0
   22.0207   20.2942   21.8122 H   0  0  0  0  0  0  0  0  0  0  0  0
   21.2857   21.2544   23.0735 H   0  0  0  0  0  0  0  0  0  0  0  0
   19.8595   20.1351   21.8887 C   0  0  0  0  0  0  0  0  0  0  0  0
   19.0395   20.1447   22.6159 H   0  0  0  0  0  0  0  0  0  0  0  0
   19.7172   21.0506   21.2977 H   0  0  0  0  0  0  0  0  0  0  0  0
   19.7264   18.9385   20.9100 C   0  0  0  0  0  0  0  0  0  0  0  0
   20.6886   18.7415   20.4172 H   0  0  0  0  0  0  0  0  0  0  0  0
   19.0344   19.2297   20.1071 H   0  0  0  0  0  0  0  0  0  0  0  0
   19.1804   17.6411   21.5485 C   0  0  0  0  0  0  0  0  0  0  0  0
   18.2157   17.8158   22.0415 H   0  0  0  0  0  0  0  0  0  0  0  0
   19.8764   17.2146   22.2770 H   0  0  0  0  0  0  0  0  0  0  0  0
   19.0191   16.8792   20.7746 H   0  0  0  0  0  0  0  0  0  0  0  0
   18.6081   18.6877   26.0564 C   0  0  0  0  0  0  0  0  0  0  0  0
   17.6516   18.1715   25.9488 H   0  0  0  0  0  0  0  0  0  0  0  0
   19.1624   18.2655   26.8975 H   0  0  0  0  0  0  0  0  0  0  0  0
   18.4358   19.7530   26.2244 H   0  0  0  0  0  0  0  0  0  0  0  0
  1  2  1  0  0  0  0
  1  3  1  0  0  0  0
  1  4  1  0  0  0  0
  4  5  1  0  0  0  0
  4  6  1  0  0  0  0
  4  7  1  0  0  0  0
  7  8  1  0  0  0  0
  7  9  1  0  0  0  0
  7 10  1  0  0  0  0
 10 11  1  0  0  0  0
 10 12  1  0  0  0  0
 10 13  1  0  0  0  0
 13 14  1  0  0  0  0
 13 15  1  0  0  0  0
 13 16  1  0  0  0  0
 16 17  1  0  0  0  0
 16 18  1  0  0  0  0
 16 19  1  0  0  0  0
 19 20  1  0  0  0  0
 19 21  1  0  0  0  0
 19 22  1  0  0  0  0
  1 23  1  0  0  0  0
 23 24  1  0  0  0  0
 23 25  1  0  0  0  0
 23 26  1  0  0  0  0
M  END
> <VM2 Rank>
199

> <Conf_Id>
1253

> <Probability>
0.00

> <Sum Probability>
100.00

> <Delta G>
8.548

> <G>
84.014

> <E>
51.001

> <-TS>
33.013

> <U+W>
29.539

> <U>
78.059

> <W>
-48.520

> <W(PB)>
-50.670

> <W(SA)>
2.150

> <Valence>
6.917

> <Coulomb>
71.697

> <VdW>
-0.555

> <VdW6>
-9.229

> <VdW12>
8.673

> <Bond>
0.274

> <Angle>
2.758

> <Pdih>
3.885

> <Idih>
0.000

> <Tether>
0.000

$$$$
VeraChem MOL file


 26 25  0  0  0  0  0  0  0  0999 V2000     
   20.6771   18.6347   24.8262 N   0  3  0  0  0  0  0  0  0  0  0  0
   21.1620   19.1031   24.0475 H   0  0  0  0  0  0  0  0  0  0  0  0
   20.7443   17.6244   24.6296 H   0  0  0  0  0  0  0  0  0  0  0  0
   19.2238   19.0610   24.8567 C   0  0  0  0  0  0  0  0  0  0  0  0
   19.1806   20.1108   25.1572 H   0  0  0  0  0  0  0  0  0  0  0  0
   18.7345   18.4667   25.6325 H   0  0  0  0  0  0  0  0  0  0  0  0
   18.4687   18.8737   23.5235 C   0  0  0  0  0  0  0  0  0  0  0  0
   18.6825   17.8925   23.0858 H   0  0  0  0  0  0  0  0  0  0  0  0
   17.3964   18.8566   23.7594 H   0  0  0  0  0  0  0  0  0  0  0  0
   18.6975   20.0126   22.4957 C   0  0  0  0  0  0  0  0  0  0  0  0
   18.4221   20.9638   22.9721 H   0  0  0  0  0  0  0  0  0  0  0  0
   17.9849   19.8847   21.6692 H   0  0  0  0  0  0  0  0  0  0  0  0
   20.1232   20.1618   21.8980 C   0  0  0  0  0  0  0  0  0  0  0  0
   20.1199   21.0915   21.3118 H   0  0  0  0  0  0  0  0  0  0  0  0
   20.8716   20.3307   22.6807 H   0  0  0  0  0  0  0  0  0  0  0  0
   20.5620   19.0233   20.9396 C   0  0  0  0  0  0  0  0  0  0  0  0
   21.2357   19.4531   20.1849 H   0  0  0  0  0  0  0  0  0  0  0  0
   19.6957   18.6405   20.3822 H   0  0  0  0  0  0  0  0  0  0  0  0
   21.3114   17.8574   21.6239 C   0  0  0  0  0  0  0  0  0  0  0  0
   21.6761   17.1489   20.8688 H   0  0  0  0  0  0  0  0  0  0  0  0
   20.6660   17.2949   22.3052 H   0  0  0  0  0  0  0  0  0  0  0  0
   22.1845   18.2188   22.1819 H   0  0  0  0  0  0  0  0  0  0  0  0
   21.3444   18.9654   26.1535 C   0  0  0  0  0  0  0  0  0  0  0  0
   22.3903   18.6526   26.1169 H   0  0  0  0  0  0  0  0  0  0  0  0
   21.2871   20.0424   26.3258 H   0  0  0  0  0  0  0  0  0  0  0  0
   20.8286   18.4344   26.9565 H   0  0  0  0  0  0  0  0  0  0  0  0
  1  2  1  0  0  0  0
  1  3  1  0  0  0  0
  1  4  1  0  0  0  0
  4  5  1  0  0  0  0
  4  6  1  0  0  0  0
  4  7  1  0  0  0  0
  7  8  1  0  0  0  0
  7  9  1  0  0  0  0
  7 10  1  0  0  0  0
 10 11  1  0  0  0  0
 10 12  1  0  0  0  0
 10 13  1  0  0  0  0
 13 14  1  0  0  0  0
 13 15  1  0  0  0  0
 13 16  1  0  0  0  0
 16 17  1  0  0  0  0
 16 18  1  0  0  0  0
 16 19  1  0  0  0  0
 19 20  1  0  0  0  0
 19 21  1  0  0  0  0
 19 22  1  0  0  0  0
  1 23  1  0  0  0  0
 23 24  1  0  0  0  0
 23 25  1  0  0  0  0
 23 26  1  0  0  0  0
M  END
> <VM2 Rank>
200

> <Conf_Id>
1254

> <Probability>
0.00

> <Sum Probability>
100.00

> <Delta G>
8.652

> <G>
84.118

> <E>
51.105

> <-TS>
33.013

> <U+W>
29.643

> <U>
78.059

> <W>
-48.415

> <W(PB)>
-50.579

> <W(SA)>
2.164

> <Valence>
6.917

> <Coulomb>
71.697

> <VdW>
-0.555

> <VdW6>
-9.228

> <VdW12>
8.673

> <Bond>
0.274

> <Angle>
2.757

> <Pdih>
3.885

> <Idih>
0.000

> <Tether>
0.000

$$$$
