@<TRIPOS>MOLECULE
guest-s12_vm2.mol2 : vm2 ligand conformer 1
          26          25           1
SMALL
USER_CHARGES
 
@<TRIPOS>ATOM
       1    N1      19.983742   18.623830   26.486079 N.4        1 MOL1        -0.4857
       2    H1      20.862890   18.085544   26.533216 H          1 MOL1         0.3650
       3    H2      19.230437   17.918640   26.475302 H          1 MOL1         0.3650
       4    C1      19.944246   19.450696   25.216603 C.3        1 MOL1         0.0209
       5    H3      20.759782   20.176757   25.263906 H          1 MOL1         0.0967
       6    H4      18.997577   19.996672   25.201430 H          1 MOL1         0.0967
       7    C2      20.075915   18.606547   23.935929 C.3        1 MOL1        -0.1378
       8    H5      21.020551   18.047081   23.963018 H          1 MOL1         0.0993
       9    H6      19.264252   17.867603   23.900755 H          1 MOL1         0.0993
      10    C3      20.030529   19.490019   22.669494 C.3        1 MOL1        -0.1338
      11    H7      20.840697   20.231458   22.711069 H          1 MOL1         0.0993
      12    H8      19.086468   20.052299   22.648955 H          1 MOL1         0.0993
      13    C4      20.161802   18.652824   21.376725 C.3        1 MOL1        -0.1338
      14    H9      21.105775   18.090652   21.397008 H          1 MOL1         0.0993
      15    H10     19.351755   17.911468   21.334938 H          1 MOL1         0.0993
      16    C5      20.116320   19.536724   20.110290 C.3        1 MOL1        -0.1313
      17    H11     20.926451   20.278616   20.146071 H          1 MOL1         0.0993
      18    H12     19.172600   20.099486   20.084033 H          1 MOL1         0.0993
      19    C6      20.247635   18.697378   18.821437 C.3        1 MOL1        -0.2328
      20    H13     21.198423   18.148884   18.802460 H          1 MOL1         0.1004
      21    H14     20.213229   19.342146   17.933676 H          1 MOL1         0.1004
      22    H15     19.430829   17.968418   18.739895 H          1 MOL1         0.1004
      23    C7      19.847811   19.531981   27.700444 C.3        1 MOL1        -0.0781
      24    H16     20.673282   20.247175   27.708288 H          1 MOL1         0.0978
      25    H17     18.896326   20.065464   27.645278 H          1 MOL1         0.0978
      26    H18     19.877808   18.924102   28.607491 H          1 MOL1         0.0978
@<TRIPOS>BOND
    1     1     2    1
    2     1     3    1
    3     1     4    1
    4     4     5    1
    5     4     6    1
    6     4     7    1
    7     7     8    1
    8     7     9    1
    9     7    10    1
   10    10    11    1
   11    10    12    1
   12    10    13    1
   13    13    14    1
   14    13    15    1
   15    13    16    1
   16    16    17    1
   17    16    18    1
   18    16    19    1
   19    19    20    1
   20    19    21    1
   21    19    22    1
   22     1    23    1
   23    23    24    1
   24    23    25    1
   25    23    26    1
@<TRIPOS>SUBSTRUCTURE
       1 MOL1            1 RESIDUE      1      MOL     
@<SCITEGIC>MOL_PROPERTY
VM2 Rank
SciTegic.value.IntegerValue
1

@<SCITEGIC>MOL_PROPERTY
Conf_Id
SciTegic.value.IntegerValue
906

@<SCITEGIC>MOL_PROPERTY
Probability
SciTegic.value.DoubleValue
7.12

@<SCITEGIC>MOL_PROPERTY
Sum Probability
SciTegic.value.DoubleValue
7.12

@<SCITEGIC>MOL_PROPERTY
Delta G
SciTegic.value.DoubleValue
0.000

@<SCITEGIC>MOL_PROPERTY
G
SciTegic.value.DoubleValue
75.466

@<SCITEGIC>MOL_PROPERTY
E
SciTegic.value.DoubleValue
43.304

@<SCITEGIC>MOL_PROPERTY
-TS
SciTegic.value.DoubleValue
32.163

@<SCITEGIC>MOL_PROPERTY
U+W
SciTegic.value.DoubleValue
21.842

@<SCITEGIC>MOL_PROPERTY
U
SciTegic.value.DoubleValue
70.358

@<SCITEGIC>MOL_PROPERTY
W
SciTegic.value.DoubleValue
-48.515

@<SCITEGIC>MOL_PROPERTY
W(PB)
SciTegic.value.DoubleValue
-50.856

@<SCITEGIC>MOL_PROPERTY
W(SA)
SciTegic.value.DoubleValue
2.341

@<SCITEGIC>MOL_PROPERTY
Valence
SciTegic.value.DoubleValue
1.714

@<SCITEGIC>MOL_PROPERTY
Coulomb
SciTegic.value.DoubleValue
68.480

@<SCITEGIC>MOL_PROPERTY
VdW
SciTegic.value.DoubleValue
0.163

@<SCITEGIC>MOL_PROPERTY
VdW6
SciTegic.value.DoubleValue
-5.268

@<SCITEGIC>MOL_PROPERTY
VdW12
SciTegic.value.DoubleValue
5.431

@<SCITEGIC>MOL_PROPERTY
Bond
SciTegic.value.DoubleValue
0.126

@<SCITEGIC>MOL_PROPERTY
Angle
SciTegic.value.DoubleValue
0.350

@<SCITEGIC>MOL_PROPERTY
Pdih
SciTegic.value.DoubleValue
1.238

@<SCITEGIC>MOL_PROPERTY
Idih
SciTegic.value.DoubleValue
0.000

@<SCITEGIC>MOL_PROPERTY
Tether
SciTegic.value.DoubleValue
0.000

@<TRIPOS>MOLECULE
guest-s12_vm2.mol2 : vm2 ligand conformer 2
          26          25           1
SMALL
USER_CHARGES
 
@<TRIPOS>ATOM
       1    N1      20.392288   19.003472   26.622233 N.4        1 MOL1        -0.4857
       2    H1      20.862966   19.562612   27.351496 H          1 MOL1         0.3650
       3    H2      20.876129   18.092266   26.632087 H          1 MOL1         0.3650
       4    C1      20.568880   19.677612   25.271842 C.3        1 MOL1         0.0209
       5    H3      21.630231   19.915621   25.164332 H          1 MOL1         0.0967
       6    H4      20.010870   20.617147   25.289096 H          1 MOL1         0.0967
       7    C2      20.122506   18.824448   24.067060 C.3        1 MOL1        -0.1378
       8    H5      20.651866   17.862603   24.086005 H          1 MOL1         0.0993
       9    H6      19.050155   18.603579   24.145489 H          1 MOL1         0.0993
      10    C3      20.403197   19.546329   22.730467 C.3        1 MOL1        -0.1338
      11    H7      21.476561   19.769169   22.652904 H          1 MOL1         0.0993
      12    H8      19.876950   20.511066   22.718165 H          1 MOL1         0.0993
      13    C4      19.961546   18.700932   21.514061 C.3        1 MOL1        -0.1338
      14    H9      20.487445   17.736151   21.526471 H          1 MOL1         0.0993
      15    H10     18.888225   18.478334   21.591248 H          1 MOL1         0.0993
      16    C5      20.242528   19.423115   20.177394 C.3        1 MOL1        -0.1313
      17    H11     21.315594   19.645825   20.094179 H          1 MOL1         0.0993
      18    H12     19.716568   20.388010   20.159029 H          1 MOL1         0.0993
      19    C6      19.800183   18.575996   18.965119 C.3        1 MOL1        -0.2328
      20    H13     20.334860   17.617601   18.936811 H          1 MOL1         0.1004
      21    H14     20.007742   19.105089   18.025966 H          1 MOL1         0.1004
      22    H15     18.723338   18.365666   19.002096 H          1 MOL1         0.1004
      23    C7      18.916872   18.838095   26.968824 C.3        1 MOL1        -0.0781
      24    H16     18.441293   18.192106   26.228166 H          1 MOL1         0.0978
      25    H17     18.831265   18.385527   27.959252 H          1 MOL1         0.0978
      26    H18     18.436267   19.818843   26.968955 H          1 MOL1         0.0978
@<TRIPOS>BOND
    1     1     2    1
    2     1     3    1
    3     1     4    1
    4     4     5    1
    5     4     6    1
    6     4     7    1
    7     7     8    1
    8     7     9    1
    9     7    10    1
   10    10    11    1
   11    10    12    1
   12    10    13    1
   13    13    14    1
   14    13    15    1
   15    13    16    1
   16    16    17    1
   17    16    18    1
   18    16    19    1
   19    19    20    1
   20    19    21    1
   21    19    22    1
   22     1    23    1
   23    23    24    1
   24    23    25    1
   25    23    26    1
@<TRIPOS>SUBSTRUCTURE
       1 MOL1            1 RESIDUE      1      MOL     
@<SCITEGIC>MOL_PROPERTY
VM2 Rank
SciTegic.value.IntegerValue
2

@<SCITEGIC>MOL_PROPERTY
Conf_Id
SciTegic.value.IntegerValue
994

@<SCITEGIC>MOL_PROPERTY
Probability
SciTegic.value.DoubleValue
4.37

@<SCITEGIC>MOL_PROPERTY
Sum Probability
SciTegic.value.DoubleValue
11.48

@<SCITEGIC>MOL_PROPERTY
Delta G
SciTegic.value.DoubleValue
0.291

@<SCITEGIC>MOL_PROPERTY
G
SciTegic.value.DoubleValue
75.757

@<SCITEGIC>MOL_PROPERTY
E
SciTegic.value.DoubleValue
43.423

@<SCITEGIC>MOL_PROPERTY
-TS
SciTegic.value.DoubleValue
32.334

@<SCITEGIC>MOL_PROPERTY
U+W
SciTegic.value.DoubleValue
21.962

@<SCITEGIC>MOL_PROPERTY
U
SciTegic.value.DoubleValue
70.745

@<SCITEGIC>MOL_PROPERTY
W
SciTegic.value.DoubleValue
-48.784

@<SCITEGIC>MOL_PROPERTY
W(PB)
SciTegic.value.DoubleValue
-51.113

@<SCITEGIC>MOL_PROPERTY
W(SA)
SciTegic.value.DoubleValue
2.329

@<SCITEGIC>MOL_PROPERTY
Valence
SciTegic.value.DoubleValue
1.993

@<SCITEGIC>MOL_PROPERTY
Coulomb
SciTegic.value.DoubleValue
68.323

@<SCITEGIC>MOL_PROPERTY
VdW
SciTegic.value.DoubleValue
0.429

@<SCITEGIC>MOL_PROPERTY
VdW6
SciTegic.value.DoubleValue
-5.973

@<SCITEGIC>MOL_PROPERTY
VdW12
SciTegic.value.DoubleValue
6.402

@<SCITEGIC>MOL_PROPERTY
Bond
SciTegic.value.DoubleValue
0.161

@<SCITEGIC>MOL_PROPERTY
Angle
SciTegic.value.DoubleValue
0.472

@<SCITEGIC>MOL_PROPERTY
Pdih
SciTegic.value.DoubleValue
1.360

@<SCITEGIC>MOL_PROPERTY
Idih
SciTegic.value.DoubleValue
0.000

@<SCITEGIC>MOL_PROPERTY
Tether
SciTegic.value.DoubleValue
0.000

@<TRIPOS>MOLECULE
guest-s12_vm2.mol2 : vm2 ligand conformer 3
          26          25           1
SMALL
USER_CHARGES
 
@<TRIPOS>ATOM
       1    N1      19.498356   18.912426   26.590591 N.4        1 MOL1        -0.4857
       2    H1      19.208554   17.922373   26.573164 H          1 MOL1         0.3650
       3    H2      18.874834   19.360115   27.281093 H          1 MOL1         0.3650
       4    C1      19.284454   19.546642   25.226325 C.3        1 MOL1         0.0209
       5    H3      19.638928   20.579259   25.275832 H          1 MOL1         0.0967
       6    H4      18.207099   19.566485   25.043063 H          1 MOL1         0.0967
       7    C2      19.976946   18.809590   24.061917 C.3        1 MOL1        -0.1378
       8    H5      21.063634   18.809031   24.216776 H          1 MOL1         0.0993
       9    H6      19.652489   17.760625   24.050699 H          1 MOL1         0.0993
      10    C3      19.650649   19.469461   22.703804 C.3        1 MOL1        -0.1338
      11    H7      19.970906   20.520616   22.721461 H          1 MOL1         0.0993
      12    H8      18.562522   19.471634   22.549666 H          1 MOL1         0.0993
      13    C4      20.337922   18.739299   21.527411 C.3        1 MOL1        -0.1338
      14    H9      21.425982   18.737351   21.681183 H          1 MOL1         0.0993
      15    H10     20.018002   17.688172   21.509855 H          1 MOL1         0.0993
      16    C5      20.011306   19.399459   20.169221 C.3        1 MOL1        -0.1313
      17    H11     20.331567   20.450787   20.180894 H          1 MOL1         0.0993
      18    H12     18.923901   19.401502   20.009399 H          1 MOL1         0.0993
      19    C6      20.699469   18.667847   18.997020 C.3        1 MOL1        -0.2328
      20    H13     21.791306   18.679063   19.110896 H          1 MOL1         0.1004
      21    H14     20.455685   19.150847   18.041872 H          1 MOL1         0.1004
      22    H15     20.372686   17.621448   18.938156 H          1 MOL1         0.1004
      23    C7      20.948899   19.045276   27.040710 C.3        1 MOL1        -0.0781
      24    H16     21.220849   20.102716   27.067356 H          1 MOL1         0.0978
      25    H17     21.054420   18.612298   28.037951 H          1 MOL1         0.0978
      26    H18     21.595498   18.513560   26.339825 H          1 MOL1         0.0978
@<TRIPOS>BOND
    1     1     2    1
    2     1     3    1
    3     1     4    1
    4     4     5    1
    5     4     6    1
    6     4     7    1
    7     7     8    1
    8     7     9    1
    9     7    10    1
   10    10    11    1
   11    10    12    1
   12    10    13    1
   13    13    14    1
   14    13    15    1
   15    13    16    1
   16    16    17    1
   17    16    18    1
   18    16    19    1
   19    19    20    1
   20    19    21    1
   21    19    22    1
   22     1    23    1
   23    23    24    1
   24    23    25    1
   25    23    26    1
@<TRIPOS>SUBSTRUCTURE
       1 MOL1            1 RESIDUE      1      MOL     
@<SCITEGIC>MOL_PROPERTY
VM2 Rank
SciTegic.value.IntegerValue
3

@<SCITEGIC>MOL_PROPERTY
Conf_Id
SciTegic.value.IntegerValue
37

@<SCITEGIC>MOL_PROPERTY
Probability
SciTegic.value.DoubleValue
4.33

@<SCITEGIC>MOL_PROPERTY
Sum Probability
SciTegic.value.DoubleValue
15.81

@<SCITEGIC>MOL_PROPERTY
Delta G
SciTegic.value.DoubleValue
0.296

@<SCITEGIC>MOL_PROPERTY
G
SciTegic.value.DoubleValue
75.762

@<SCITEGIC>MOL_PROPERTY
E
SciTegic.value.DoubleValue
43.429

@<SCITEGIC>MOL_PROPERTY
-TS
SciTegic.value.DoubleValue
32.333

@<SCITEGIC>MOL_PROPERTY
U+W
SciTegic.value.DoubleValue
21.967

@<SCITEGIC>MOL_PROPERTY
U
SciTegic.value.DoubleValue
70.745

@<SCITEGIC>MOL_PROPERTY
W
SciTegic.value.DoubleValue
-48.778

@<SCITEGIC>MOL_PROPERTY
W(PB)
SciTegic.value.DoubleValue
-51.115

@<SCITEGIC>MOL_PROPERTY
W(SA)
SciTegic.value.DoubleValue
2.337

@<SCITEGIC>MOL_PROPERTY
Valence
SciTegic.value.DoubleValue
1.993

@<SCITEGIC>MOL_PROPERTY
Coulomb
SciTegic.value.DoubleValue
68.323

@<SCITEGIC>MOL_PROPERTY
VdW
SciTegic.value.DoubleValue
0.429

@<SCITEGIC>MOL_PROPERTY
VdW6
SciTegic.value.DoubleValue
-5.973

@<SCITEGIC>MOL_PROPERTY
VdW12
SciTegic.value.DoubleValue
6.403

@<SCITEGIC>MOL_PROPERTY
Bond
SciTegic.value.DoubleValue
0.161

@<SCITEGIC>MOL_PROPERTY
Angle
SciTegic.value.DoubleValue
0.472

@<SCITEGIC>MOL_PROPERTY
Pdih
SciTegic.value.DoubleValue
1.360

@<SCITEGIC>MOL_PROPERTY
Idih
SciTegic.value.DoubleValue
0.000

@<SCITEGIC>MOL_PROPERTY
Tether
SciTegic.value.DoubleValue
0.000

@<TRIPOS>MOLECULE
guest-s12_vm2.mol2 : vm2 ligand conformer 4
          26          25           1
SMALL
USER_CHARGES
 
@<TRIPOS>ATOM
       1    N1      20.555881   19.293626   25.947468 N.4        1 MOL1        -0.4857
       2    H1      20.960810   20.023418   25.341994 H          1 MOL1         0.3650
       3    H2      21.264870   18.545163   25.990552 H          1 MOL1         0.3650
       4    C1      19.273170   18.762649   25.337009 C.3        1 MOL1         0.0209
       5    H3      18.552557   19.583453   25.298973 H          1 MOL1         0.0967
       6    H4      18.881216   17.995493   26.009668 H          1 MOL1         0.0967
       7    C2      19.451775   18.163512   23.928025 C.3        1 MOL1        -0.1378
       8    H5      20.181440   17.343772   23.967820 H          1 MOL1         0.0993
       9    H6      18.497383   17.717907   23.617358 H          1 MOL1         0.0993
      10    C3      19.890688   19.215421   22.881629 C.3        1 MOL1        -0.1338
      11    H7      20.863232   19.640507   23.163451 H          1 MOL1         0.0993
      12    H8      19.170341   20.045378   22.873003 H          1 MOL1         0.0993
      13    C4      19.993425   18.607266   21.464300 C.3        1 MOL1        -0.1338
      14    H9      20.711213   17.775248   21.472532 H          1 MOL1         0.0993
      15    H10     19.021438   18.184941   21.173781 H          1 MOL1         0.0993
      16    C5      20.432287   19.655407   20.417363 C.3        1 MOL1        -0.1313
      17    H11     21.405922   20.078917   20.701351 H          1 MOL1         0.0993
      18    H12     19.716150   20.489052   20.403903 H          1 MOL1         0.0993
      19    C6      20.532990   19.044464   19.003333 C.3        1 MOL1        -0.2328
      20    H13     21.267799   18.229265   18.976716 H          1 MOL1         0.1004
      21    H14     20.845644   19.803391   18.274429 H          1 MOL1         0.1004
      22    H15     19.564892   18.642772   18.676787 H          1 MOL1         0.1004
      23    C7      20.277782   19.847654   27.337872 C.3        1 MOL1        -0.0781
      24    H16     19.879827   19.050124   27.969154 H          1 MOL1         0.0978
      25    H17     21.208760   20.226636   27.765398 H          1 MOL1         0.0978
      26    H18     19.549576   20.658194   27.262474 H          1 MOL1         0.0978
@<TRIPOS>BOND
    1     1     2    1
    2     1     3    1
    3     1     4    1
    4     4     5    1
    5     4     6    1
    6     4     7    1
    7     7     8    1
    8     7     9    1
    9     7    10    1
   10    10    11    1
   11    10    12    1
   12    10    13    1
   13    13    14    1
   14    13    15    1
   15    13    16    1
   16    16    17    1
   17    16    18    1
   18    16    19    1
   19    19    20    1
   20    19    21    1
   21    19    22    1
   22     1    23    1
   23    23    24    1
   24    23    25    1
   25    23    26    1
@<TRIPOS>SUBSTRUCTURE
       1 MOL1            1 RESIDUE      1      MOL     
@<SCITEGIC>MOL_PROPERTY
VM2 Rank
SciTegic.value.IntegerValue
4

@<SCITEGIC>MOL_PROPERTY
Conf_Id
SciTegic.value.IntegerValue
484

@<SCITEGIC>MOL_PROPERTY
Probability
SciTegic.value.DoubleValue
3.19

@<SCITEGIC>MOL_PROPERTY
Sum Probability
SciTegic.value.DoubleValue
19.00

@<SCITEGIC>MOL_PROPERTY
Delta G
SciTegic.value.DoubleValue
0.478

@<SCITEGIC>MOL_PROPERTY
G
SciTegic.value.DoubleValue
75.944

@<SCITEGIC>MOL_PROPERTY
E
SciTegic.value.DoubleValue
43.689

@<SCITEGIC>MOL_PROPERTY
-TS
SciTegic.value.DoubleValue
32.255

@<SCITEGIC>MOL_PROPERTY
U+W
SciTegic.value.DoubleValue
22.227

@<SCITEGIC>MOL_PROPERTY
U
SciTegic.value.DoubleValue
71.142

@<SCITEGIC>MOL_PROPERTY
W
SciTegic.value.DoubleValue
-48.916

@<SCITEGIC>MOL_PROPERTY
W(PB)
SciTegic.value.DoubleValue
-51.253

@<SCITEGIC>MOL_PROPERTY
W(SA)
SciTegic.value.DoubleValue
2.337

@<SCITEGIC>MOL_PROPERTY
Valence
SciTegic.value.DoubleValue
1.835

@<SCITEGIC>MOL_PROPERTY
Coulomb
SciTegic.value.DoubleValue
69.101

@<SCITEGIC>MOL_PROPERTY
VdW
SciTegic.value.DoubleValue
0.206

@<SCITEGIC>MOL_PROPERTY
VdW6
SciTegic.value.DoubleValue
-5.849

@<SCITEGIC>MOL_PROPERTY
VdW12
SciTegic.value.DoubleValue
6.055

@<SCITEGIC>MOL_PROPERTY
Bond
SciTegic.value.DoubleValue
0.142

@<SCITEGIC>MOL_PROPERTY
Angle
SciTegic.value.DoubleValue
0.413

@<SCITEGIC>MOL_PROPERTY
Pdih
SciTegic.value.DoubleValue
1.279

@<SCITEGIC>MOL_PROPERTY
Idih
SciTegic.value.DoubleValue
0.000

@<SCITEGIC>MOL_PROPERTY
Tether
SciTegic.value.DoubleValue
0.000

@<TRIPOS>MOLECULE
guest-s12_vm2.mol2 : vm2 ligand conformer 5
          26          25           1
SMALL
USER_CHARGES
 
@<TRIPOS>ATOM
       1    N1      19.928122   18.806510   26.289579 N.4        1 MOL1        -0.4857
       2    H1      20.799322   19.042027   26.789962 H          1 MOL1         0.3650
       3    H2      19.867060   17.776726   26.314679 H          1 MOL1         0.3650
       4    C1      20.001184   19.291343   24.855690 C.3        1 MOL1         0.0209
       5    H3      20.075562   20.381559   24.873657 H          1 MOL1         0.0967
       6    H4      19.064757   19.017580   24.363944 H          1 MOL1         0.0967
       7    C2      21.192042   18.703576   24.074225 C.3        1 MOL1        -0.1378
       8    H5      22.123447   18.948114   24.602064 H          1 MOL1         0.0993
       9    H6      21.118312   17.608011   24.057696 H          1 MOL1         0.0993
      10    C3      21.279986   19.240554   22.626065 C.3        1 MOL1        -0.1338
      11    H7      22.197305   18.852686   22.161769 H          1 MOL1         0.0993
      12    H8      21.381410   20.334616   22.646584 H          1 MOL1         0.0993
      13    C4      20.062631   18.845050   21.755711 C.3        1 MOL1        -0.1338
      14    H9      19.944225   17.752648   21.764487 H          1 MOL1         0.0993
      15    H10     19.142998   19.268181   22.181522 H          1 MOL1         0.0993
      16    C5      20.216329   19.333306   20.297920 C.3        1 MOL1        -0.1313
      17    H11     21.129806   18.908815   19.858201 H          1 MOL1         0.0993
      18    H12     20.335957   20.425768   20.283172 H          1 MOL1         0.0993
      19    C6      19.001012   18.939725   19.431294 C.3        1 MOL1        -0.2328
      20    H13     18.075512   19.378853   19.826021 H          1 MOL1         0.1004
      21    H14     18.875451   17.849591   19.398987 H          1 MOL1         0.1004
      22    H15     19.128849   19.294498   18.400362 H          1 MOL1         0.1004
      23    C7      18.726694   19.429936   26.986516 C.3        1 MOL1        -0.0781
      24    H16     18.685882   19.072847   28.018003 H          1 MOL1         0.0978
      25    H17     18.829937   20.517227   26.976451 H          1 MOL1         0.0978
      26    H18     17.815156   19.139723   26.459420 H          1 MOL1         0.0978
@<TRIPOS>BOND
    1     1     2    1
    2     1     3    1
    3     1     4    1
    4     4     5    1
    5     4     6    1
    6     4     7    1
    7     7     8    1
    8     7     9    1
    9     7    10    1
   10    10    11    1
   11    10    12    1
   12    10    13    1
   13    13    14    1
   14    13    15    1
   15    13    16    1
   16    16    17    1
   17    16    18    1
   18    16    19    1
   19    19    20    1
   20    19    21    1
   21    19    22    1
   22     1    23    1
   23    23    24    1
   24    23    25    1
   25    23    26    1
@<TRIPOS>SUBSTRUCTURE
       1 MOL1            1 RESIDUE      1      MOL     
@<SCITEGIC>MOL_PROPERTY
VM2 Rank
SciTegic.value.IntegerValue
5

@<SCITEGIC>MOL_PROPERTY
Conf_Id
SciTegic.value.IntegerValue
485

@<SCITEGIC>MOL_PROPERTY
Probability
SciTegic.value.DoubleValue
2.77

@<SCITEGIC>MOL_PROPERTY
Sum Probability
SciTegic.value.DoubleValue
21.78

@<SCITEGIC>MOL_PROPERTY
Delta G
SciTegic.value.DoubleValue
0.562

@<SCITEGIC>MOL_PROPERTY
G
SciTegic.value.DoubleValue
76.028

@<SCITEGIC>MOL_PROPERTY
E
SciTegic.value.DoubleValue
43.768

@<SCITEGIC>MOL_PROPERTY
-TS
SciTegic.value.DoubleValue
32.260

@<SCITEGIC>MOL_PROPERTY
U+W
SciTegic.value.DoubleValue
22.306

@<SCITEGIC>MOL_PROPERTY
U
SciTegic.value.DoubleValue
71.138

@<SCITEGIC>MOL_PROPERTY
W
SciTegic.value.DoubleValue
-48.832

@<SCITEGIC>MOL_PROPERTY
W(PB)
SciTegic.value.DoubleValue
-51.176

@<SCITEGIC>MOL_PROPERTY
W(SA)
SciTegic.value.DoubleValue
2.344

@<SCITEGIC>MOL_PROPERTY
Valence
SciTegic.value.DoubleValue
2.016

@<SCITEGIC>MOL_PROPERTY
Coulomb
SciTegic.value.DoubleValue
68.932

@<SCITEGIC>MOL_PROPERTY
VdW
SciTegic.value.DoubleValue
0.190

@<SCITEGIC>MOL_PROPERTY
VdW6
SciTegic.value.DoubleValue
-5.902

@<SCITEGIC>MOL_PROPERTY
VdW12
SciTegic.value.DoubleValue
6.092

@<SCITEGIC>MOL_PROPERTY
Bond
SciTegic.value.DoubleValue
0.149

@<SCITEGIC>MOL_PROPERTY
Angle
SciTegic.value.DoubleValue
0.477

@<SCITEGIC>MOL_PROPERTY
Pdih
SciTegic.value.DoubleValue
1.390

@<SCITEGIC>MOL_PROPERTY
Idih
SciTegic.value.DoubleValue
0.000

@<SCITEGIC>MOL_PROPERTY
Tether
SciTegic.value.DoubleValue
0.000

@<TRIPOS>MOLECULE
guest-s12_vm2.mol2 : vm2 ligand conformer 6
          26          25           1
SMALL
USER_CHARGES
 
@<TRIPOS>ATOM
       1    N1      20.014991   18.815364   26.292669 N.4        1 MOL1        -0.4857
       2    H1      20.281123   17.819052   26.329399 H          1 MOL1         0.3650
       3    H2      19.081275   18.866256   26.729044 H          1 MOL1         0.3650
       4    C1      19.946092   19.285636   24.853733 C.3        1 MOL1         0.0209
       5    H3      20.950619   19.210274   24.430766 H          1 MOL1         0.0967
       6    H4      19.651865   20.338171   24.858607 H          1 MOL1         0.0967
       7    C2      18.956303   18.474942   23.995022 C.3        1 MOL1        -0.1378
       8    H5      19.250903   17.417034   23.991513 H          1 MOL1         0.0993
       9    H6      17.960075   18.522395   24.454594 H          1 MOL1         0.0993
      10    C3      18.863254   18.993462   22.540470 C.3        1 MOL1        -0.1338
      11    H7      18.541649   20.044279   22.546047 H          1 MOL1         0.0993
      12    H8      18.078039   18.431575   22.015869 H          1 MOL1         0.0993
      13    C4      20.193296   18.858398   21.760316 C.3        1 MOL1        -0.1338
      14    H9      20.976313   19.455627   22.246406 H          1 MOL1         0.0993
      15    H10     20.529147   17.812441   21.785196 H          1 MOL1         0.0993
      16    C5      20.046495   19.315897   20.291875 C.3        1 MOL1        -0.1313
      17    H11     19.709749   20.361673   20.260949 H          1 MOL1         0.0993
      18    H12     19.270809   18.718602   19.792340 H          1 MOL1         0.0993
      19    C6      21.373926   19.182422   19.515308 C.3        1 MOL1        -0.2328
      20    H13     21.249469   19.511332   18.475425 H          1 MOL1         0.1004
      21    H14     21.719320   18.140471   19.499735 H          1 MOL1         0.1004
      22    H15     22.161530   19.796846   19.970673 H          1 MOL1         0.1004
      23    C7      21.013643   19.663879   27.067606 C.3        1 MOL1        -0.0781
      24    H16     21.053454   19.315022   28.101945 H          1 MOL1         0.0978
      25    H17     21.999688   19.567830   26.607775 H          1 MOL1         0.0978
      26    H18     20.693579   20.707859   27.042557 H          1 MOL1         0.0978
@<TRIPOS>BOND
    1     1     2    1
    2     1     3    1
    3     1     4    1
    4     4     5    1
    5     4     6    1
    6     4     7    1
    7     7     8    1
    8     7     9    1
    9     7    10    1
   10    10    11    1
   11    10    12    1
   12    10    13    1
   13    13    14    1
   14    13    15    1
   15    13    16    1
   16    16    17    1
   17    16    18    1
   18    16    19    1
   19    19    20    1
   20    19    21    1
   21    19    22    1
   22     1    23    1
   23    23    24    1
   24    23    25    1
   25    23    26    1
@<TRIPOS>SUBSTRUCTURE
       1 MOL1            1 RESIDUE      1      MOL     
@<SCITEGIC>MOL_PROPERTY
VM2 Rank
SciTegic.value.IntegerValue
6

@<SCITEGIC>MOL_PROPERTY
Conf_Id
SciTegic.value.IntegerValue
1096

@<SCITEGIC>MOL_PROPERTY
Probability
SciTegic.value.DoubleValue
2.63

@<SCITEGIC>MOL_PROPERTY
Sum Probability
SciTegic.value.DoubleValue
24.41

@<SCITEGIC>MOL_PROPERTY
Delta G
SciTegic.value.DoubleValue
0.593

@<SCITEGIC>MOL_PROPERTY
G
SciTegic.value.DoubleValue
76.059

@<SCITEGIC>MOL_PROPERTY
E
SciTegic.value.DoubleValue
43.798

@<SCITEGIC>MOL_PROPERTY
-TS
SciTegic.value.DoubleValue
32.260

@<SCITEGIC>MOL_PROPERTY
U+W
SciTegic.value.DoubleValue
22.337

@<SCITEGIC>MOL_PROPERTY
U
SciTegic.value.DoubleValue
71.138

@<SCITEGIC>MOL_PROPERTY
W
SciTegic.value.DoubleValue
-48.801

@<SCITEGIC>MOL_PROPERTY
W(PB)
SciTegic.value.DoubleValue
-51.136

@<SCITEGIC>MOL_PROPERTY
W(SA)
SciTegic.value.DoubleValue
2.335

@<SCITEGIC>MOL_PROPERTY
Valence
SciTegic.value.DoubleValue
2.016

@<SCITEGIC>MOL_PROPERTY
Coulomb
SciTegic.value.DoubleValue
68.932

@<SCITEGIC>MOL_PROPERTY
VdW
SciTegic.value.DoubleValue
0.190

@<SCITEGIC>MOL_PROPERTY
VdW6
SciTegic.value.DoubleValue
-5.902

@<SCITEGIC>MOL_PROPERTY
VdW12
SciTegic.value.DoubleValue
6.092

@<SCITEGIC>MOL_PROPERTY
Bond
SciTegic.value.DoubleValue
0.149

@<SCITEGIC>MOL_PROPERTY
Angle
SciTegic.value.DoubleValue
0.477

@<SCITEGIC>MOL_PROPERTY
Pdih
SciTegic.value.DoubleValue
1.390

@<SCITEGIC>MOL_PROPERTY
Idih
SciTegic.value.DoubleValue
0.000

@<SCITEGIC>MOL_PROPERTY
Tether
SciTegic.value.DoubleValue
0.000

@<TRIPOS>MOLECULE
guest-s12_vm2.mol2 : vm2 ligand conformer 7
          26          25           1
SMALL
USER_CHARGES
 
@<TRIPOS>ATOM
       1    N1      19.590037   19.765997   26.020344 N.4        1 MOL1        -0.4857
       2    H1      18.970131   19.996229   26.813187 H          1 MOL1         0.3650
       3    H2      19.449033   20.527973   25.340461 H          1 MOL1         0.3650
       4    C1      19.166576   18.437777   25.412463 C.3        1 MOL1         0.0209
       5    H3      18.090419   18.491391   25.229066 H          1 MOL1         0.0967
       6    H4      19.341212   17.661083   26.161297 H          1 MOL1         0.0967
       7    C2      19.880988   18.056485   24.097303 C.3        1 MOL1        -0.1378
       8    H5      20.957487   17.941165   24.278192 H          1 MOL1         0.0993
       9    H6      19.514450   17.071580   23.779004 H          1 MOL1         0.0993
      10    C3      19.640989   19.083035   22.964938 C.3        1 MOL1        -0.1338
      11    H7      20.043005   20.061931   23.258659 H          1 MOL1         0.0993
      12    H8      18.560654   19.213674   22.811782 H          1 MOL1         0.0993
      13    C4      20.300551   18.640292   21.639032 C.3        1 MOL1        -0.1338
      14    H9      21.380352   18.506340   21.792687 H          1 MOL1         0.0993
      15    H10     19.899290   17.662969   21.336841 H          1 MOL1         0.0993
      16    C5      20.064896   19.665371   20.507272 C.3        1 MOL1        -0.1313
      17    H11     20.467325   20.644366   20.803234 H          1 MOL1         0.0993
      18    H12     18.985897   19.801429   20.348410 H          1 MOL1         0.0993
      19    C6      20.724665   19.219585   19.184834 C.3        1 MOL1        -0.2328
      20    H13     20.546508   19.959653   18.393897 H          1 MOL1         0.1004
      21    H14     20.317366   18.258579   18.844576 H          1 MOL1         0.1004
      22    H15     21.810373   19.108007   19.303101 H          1 MOL1         0.1004
      23    C7      21.039298   19.721458   26.490814 C.3        1 MOL1        -0.0781
      24    H16     21.295066   20.678265   26.951409 H          1 MOL1         0.0978
      25    H17     21.154669   18.917915   27.221426 H          1 MOL1         0.0978
      26    H18     21.691553   19.540443   25.634092 H          1 MOL1         0.0978
@<TRIPOS>BOND
    1     1     2    1
    2     1     3    1
    3     1     4    1
    4     4     5    1
    5     4     6    1
    6     4     7    1
    7     7     8    1
    8     7     9    1
    9     7    10    1
   10    10    11    1
   11    10    12    1
   12    10    13    1
   13    13    14    1
   14    13    15    1
   15    13    16    1
   16    16    17    1
   17    16    18    1
   18    16    19    1
   19    19    20    1
   20    19    21    1
   21    19    22    1
   22     1    23    1
   23    23    24    1
   24    23    25    1
   25    23    26    1
@<TRIPOS>SUBSTRUCTURE
       1 MOL1            1 RESIDUE      1      MOL     
@<SCITEGIC>MOL_PROPERTY
VM2 Rank
SciTegic.value.IntegerValue
7

@<SCITEGIC>MOL_PROPERTY
Conf_Id
SciTegic.value.IntegerValue
775

@<SCITEGIC>MOL_PROPERTY
Probability
SciTegic.value.DoubleValue
2.63

@<SCITEGIC>MOL_PROPERTY
Sum Probability
SciTegic.value.DoubleValue
27.04

@<SCITEGIC>MOL_PROPERTY
Delta G
SciTegic.value.DoubleValue
0.594

@<SCITEGIC>MOL_PROPERTY
G
SciTegic.value.DoubleValue
76.060

@<SCITEGIC>MOL_PROPERTY
E
SciTegic.value.DoubleValue
43.581

@<SCITEGIC>MOL_PROPERTY
-TS
SciTegic.value.DoubleValue
32.480

@<SCITEGIC>MOL_PROPERTY
U+W
SciTegic.value.DoubleValue
22.119

@<SCITEGIC>MOL_PROPERTY
U
SciTegic.value.DoubleValue
71.479

@<SCITEGIC>MOL_PROPERTY
W
SciTegic.value.DoubleValue
-49.361

@<SCITEGIC>MOL_PROPERTY
W(PB)
SciTegic.value.DoubleValue
-51.654

@<SCITEGIC>MOL_PROPERTY
W(SA)
SciTegic.value.DoubleValue
2.294

@<SCITEGIC>MOL_PROPERTY
Valence
SciTegic.value.DoubleValue
2.085

@<SCITEGIC>MOL_PROPERTY
Coulomb
SciTegic.value.DoubleValue
68.999

@<SCITEGIC>MOL_PROPERTY
VdW
SciTegic.value.DoubleValue
0.395

@<SCITEGIC>MOL_PROPERTY
VdW6
SciTegic.value.DoubleValue
-6.753

@<SCITEGIC>MOL_PROPERTY
VdW12
SciTegic.value.DoubleValue
7.148

@<SCITEGIC>MOL_PROPERTY
Bond
SciTegic.value.DoubleValue
0.184

@<SCITEGIC>MOL_PROPERTY
Angle
SciTegic.value.DoubleValue
0.576

@<SCITEGIC>MOL_PROPERTY
Pdih
SciTegic.value.DoubleValue
1.325

@<SCITEGIC>MOL_PROPERTY
Idih
SciTegic.value.DoubleValue
0.000

@<SCITEGIC>MOL_PROPERTY
Tether
SciTegic.value.DoubleValue
0.000

@<TRIPOS>MOLECULE
guest-s12_vm2.mol2 : vm2 ligand conformer 8
          26          25           1
SMALL
USER_CHARGES
 
@<TRIPOS>ATOM
       1    N1      20.169565   19.825519   26.040890 N.4        1 MOL1        -0.4857
       2    H1      20.200092   20.605108   25.367067 H          1 MOL1         0.3650
       3    H2      20.672879   20.171111   26.873436 H          1 MOL1         0.3650
       4    C1      20.895271   18.615317   25.473636 C.3        1 MOL1         0.0209
       5    H3      20.830002   17.813976   26.213972 H          1 MOL1         0.0967
       6    H4      21.948275   18.887574   25.365560 H          1 MOL1         0.0967
       7    C2      20.366873   18.106432   24.114502 C.3        1 MOL1        -0.1378
       8    H5      20.946890   17.218619   23.829777 H          1 MOL1         0.0993
       9    H6      19.326162   17.773915   24.220434 H          1 MOL1         0.0993
      10    C3      20.472390   19.168356   22.994308 C.3        1 MOL1        -0.1338
      11    H7      21.511823   19.516374   22.916142 H          1 MOL1         0.0993
      12    H8      19.860749   20.043316   23.252118 H          1 MOL1         0.0993
      13    C4      20.010666   18.610563   21.628751 C.3        1 MOL1        -0.1338
      14    H9      20.621811   17.737022   21.362442 H          1 MOL1         0.0993
      15    H10     18.972374   18.259454   21.707457 H          1 MOL1         0.0993
      16    C5      20.112277   19.670155   20.508866 C.3        1 MOL1        -0.1313
      17    H11     21.149730   20.023178   20.424874 H          1 MOL1         0.0993
      18    H12     19.500112   20.545153   20.768878 H          1 MOL1         0.0993
      19    C6      19.650687   19.109338   19.146780 C.3        1 MOL1        -0.2328
      20    H13     18.604559   18.779219   19.189633 H          1 MOL1         0.1004
      21    H14     20.267061   18.253256   18.842793 H          1 MOL1         0.1004
      22    H15     19.730053   19.875762   18.364912 H          1 MOL1         0.1004
      23    C7      18.730271   19.484318   26.409266 C.3        1 MOL1        -0.0781
      24    H16     18.189840   19.180760   25.510400 H          1 MOL1         0.0978
      25    H17     18.729674   18.668900   27.135822 H          1 MOL1         0.0978
      26    H18     18.254032   20.365964   26.843941 H          1 MOL1         0.0978
@<TRIPOS>BOND
    1     1     2    1
    2     1     3    1
    3     1     4    1
    4     4     5    1
    5     4     6    1
    6     4     7    1
    7     7     8    1
    8     7     9    1
    9     7    10    1
   10    10    11    1
   11    10    12    1
   12    10    13    1
   13    13    14    1
   14    13    15    1
   15    13    16    1
   16    16    17    1
   17    16    18    1
   18    16    19    1
   19    19    20    1
   20    19    21    1
   21    19    22    1
   22     1    23    1
   23    23    24    1
   24    23    25    1
   25    23    26    1
@<TRIPOS>SUBSTRUCTURE
       1 MOL1            1 RESIDUE      1      MOL     
@<SCITEGIC>MOL_PROPERTY
VM2 Rank
SciTegic.value.IntegerValue
8

@<SCITEGIC>MOL_PROPERTY
Conf_Id
SciTegic.value.IntegerValue
1288

@<SCITEGIC>MOL_PROPERTY
Probability
SciTegic.value.DoubleValue
2.46

@<SCITEGIC>MOL_PROPERTY
Sum Probability
SciTegic.value.DoubleValue
29.50

@<SCITEGIC>MOL_PROPERTY
Delta G
SciTegic.value.DoubleValue
0.632

@<SCITEGIC>MOL_PROPERTY
G
SciTegic.value.DoubleValue
76.098

@<SCITEGIC>MOL_PROPERTY
E
SciTegic.value.DoubleValue
43.619

@<SCITEGIC>MOL_PROPERTY
-TS
SciTegic.value.DoubleValue
32.479

@<SCITEGIC>MOL_PROPERTY
U+W
SciTegic.value.DoubleValue
22.157

@<SCITEGIC>MOL_PROPERTY
U
SciTegic.value.DoubleValue
71.479

@<SCITEGIC>MOL_PROPERTY
W
SciTegic.value.DoubleValue
-49.322

@<SCITEGIC>MOL_PROPERTY
W(PB)
SciTegic.value.DoubleValue
-51.599

@<SCITEGIC>MOL_PROPERTY
W(SA)
SciTegic.value.DoubleValue
2.276

@<SCITEGIC>MOL_PROPERTY
Valence
SciTegic.value.DoubleValue
2.085

@<SCITEGIC>MOL_PROPERTY
Coulomb
SciTegic.value.DoubleValue
68.999

@<SCITEGIC>MOL_PROPERTY
VdW
SciTegic.value.DoubleValue
0.395

@<SCITEGIC>MOL_PROPERTY
VdW6
SciTegic.value.DoubleValue
-6.752

@<SCITEGIC>MOL_PROPERTY
VdW12
SciTegic.value.DoubleValue
7.148

@<SCITEGIC>MOL_PROPERTY
Bond
SciTegic.value.DoubleValue
0.184

@<SCITEGIC>MOL_PROPERTY
Angle
SciTegic.value.DoubleValue
0.576

@<SCITEGIC>MOL_PROPERTY
Pdih
SciTegic.value.DoubleValue
1.325

@<SCITEGIC>MOL_PROPERTY
Idih
SciTegic.value.DoubleValue
0.000

@<SCITEGIC>MOL_PROPERTY
Tether
SciTegic.value.DoubleValue
0.000

@<TRIPOS>MOLECULE
guest-s12_vm2.mol2 : vm2 ligand conformer 9
          26          25           1
SMALL
USER_CHARGES
 
@<TRIPOS>ATOM
       1    N1      19.928082   18.743538   26.413468 N.4        1 MOL1        -0.4857
       2    H1      20.550601   17.922187   26.465539 H          1 MOL1         0.3650
       3    H2      18.971793   18.370162   26.518189 H          1 MOL1         0.3650
       4    C1      20.077695   19.428775   25.070013 C.3        1 MOL1         0.0209
       5    H3      21.102537   19.801206   24.995925 H          1 MOL1         0.0967
       6    H4      19.398180   20.284611   25.052647 H          1 MOL1         0.0967
       7    C2      19.775459   18.503193   23.877532 C.3        1 MOL1        -0.1378
       8    H5      20.449306   17.636546   23.907972 H          1 MOL1         0.0993
       9    H6      18.750643   18.118348   23.965175 H          1 MOL1         0.0993
      10    C3      19.940844   19.243192   22.531558 C.3        1 MOL1        -0.1338
      11    H7      20.964877   19.633115   22.460263 H          1 MOL1         0.0993
      12    H8      19.266557   20.110497   22.505372 H          1 MOL1         0.0993
      13    C4      19.642638   18.319045   21.326189 C.3        1 MOL1        -0.1338
      14    H9      20.349001   17.477397   21.320361 H          1 MOL1         0.0993
      15    H10     18.642133   17.881392   21.448187 H          1 MOL1         0.0993
      16    C5      19.696422   19.047834   19.961481 C.3        1 MOL1        -0.1313
      17    H11     18.974936   19.876825   19.953947 H          1 MOL1         0.0993
      18    H12     19.370963   18.350752   19.176600 H          1 MOL1         0.0993
      19    C6      21.102955   19.579493   19.603016 C.3        1 MOL1        -0.2328
      20    H13     21.106697   20.003465   18.590510 H          1 MOL1         0.1004
      21    H14     21.848853   18.774641   19.632140 H          1 MOL1         0.1004
      22    H15     21.423134   20.370672   20.292153 H          1 MOL1         0.1004
      23    C7      20.243904   19.724929   27.533742 C.3        1 MOL1        -0.0781
      24    H16     20.132403   19.218866   28.495312 H          1 MOL1         0.0978
      25    H17     21.270452   20.080522   27.420948 H          1 MOL1         0.0978
      26    H18     19.551871   20.568124   27.478280 H          1 MOL1         0.0978
@<TRIPOS>BOND
    1     1     2    1
    2     1     3    1
    3     1     4    1
    4     4     5    1
    5     4     6    1
    6     4     7    1
    7     7     8    1
    8     7     9    1
    9     7    10    1
   10    10    11    1
   11    10    12    1
   12    10    13    1
   13    13    14    1
   14    13    15    1
   15    13    16    1
   16    16    17    1
   17    16    18    1
   18    16    19    1
   19    19    20    1
   20    19    21    1
   21    19    22    1
   22     1    23    1
   23    23    24    1
   24    23    25    1
   25    23    26    1
@<TRIPOS>SUBSTRUCTURE
       1 MOL1            1 RESIDUE      1      MOL     
@<SCITEGIC>MOL_PROPERTY
VM2 Rank
SciTegic.value.IntegerValue
9

@<SCITEGIC>MOL_PROPERTY
Conf_Id
SciTegic.value.IntegerValue
760

@<SCITEGIC>MOL_PROPERTY
Probability
SciTegic.value.DoubleValue
2.29

@<SCITEGIC>MOL_PROPERTY
Sum Probability
SciTegic.value.DoubleValue
31.79

@<SCITEGIC>MOL_PROPERTY
Delta G
SciTegic.value.DoubleValue
0.676

@<SCITEGIC>MOL_PROPERTY
G
SciTegic.value.DoubleValue
76.142

@<SCITEGIC>MOL_PROPERTY
E
SciTegic.value.DoubleValue
43.870

@<SCITEGIC>MOL_PROPERTY
-TS
SciTegic.value.DoubleValue
32.272

@<SCITEGIC>MOL_PROPERTY
U+W
SciTegic.value.DoubleValue
22.408

@<SCITEGIC>MOL_PROPERTY
U
SciTegic.value.DoubleValue
71.035

@<SCITEGIC>MOL_PROPERTY
W
SciTegic.value.DoubleValue
-48.627

@<SCITEGIC>MOL_PROPERTY
W(PB)
SciTegic.value.DoubleValue
-50.936

@<SCITEGIC>MOL_PROPERTY
W(SA)
SciTegic.value.DoubleValue
2.309

@<SCITEGIC>MOL_PROPERTY
Valence
SciTegic.value.DoubleValue
2.223

@<SCITEGIC>MOL_PROPERTY
Coulomb
SciTegic.value.DoubleValue
68.516

@<SCITEGIC>MOL_PROPERTY
VdW
SciTegic.value.DoubleValue
0.297

@<SCITEGIC>MOL_PROPERTY
VdW6
SciTegic.value.DoubleValue
-5.882

@<SCITEGIC>MOL_PROPERTY
VdW12
SciTegic.value.DoubleValue
6.178

@<SCITEGIC>MOL_PROPERTY
Bond
SciTegic.value.DoubleValue
0.162

@<SCITEGIC>MOL_PROPERTY
Angle
SciTegic.value.DoubleValue
0.596

@<SCITEGIC>MOL_PROPERTY
Pdih
SciTegic.value.DoubleValue
1.465

@<SCITEGIC>MOL_PROPERTY
Idih
SciTegic.value.DoubleValue
0.000

@<SCITEGIC>MOL_PROPERTY
Tether
SciTegic.value.DoubleValue
0.000

@<TRIPOS>MOLECULE
guest-s12_vm2.mol2 : vm2 ligand conformer 10
          26          25           1
SMALL
USER_CHARGES
 
@<TRIPOS>ATOM
       1    N1      20.019240   18.752937   26.416726 N.4        1 MOL1        -0.4857
       2    H1      21.021601   18.580161   26.590751 H          1 MOL1         0.3650
       3    H2      19.573805   17.822216   26.431076 H          1 MOL1         0.3650
       4    C1      19.828338   19.403213   25.061179 C.3        1 MOL1         0.0209
       5    H3      20.320108   20.378962   25.085171 H          1 MOL1         0.0967
       6    H4      18.757073   19.561044   24.912943 H          1 MOL1         0.0967
       7    C2      20.394260   18.566432   23.899457 C.3        1 MOL1        -0.1378
       8    H5      21.467016   18.396147   24.061416 H          1 MOL1         0.0993
       9    H6      19.909136   17.581234   23.888834 H          1 MOL1         0.0993
      10    C3      20.177353   19.267336   22.539941 C.3        1 MOL1        -0.1338
      11    H7      20.662472   20.253237   22.554857 H          1 MOL1         0.0993
      12    H8      19.103192   19.442636   22.394295 H          1 MOL1         0.0993
      13    C4      20.739969   18.431270   21.365058 C.3        1 MOL1        -0.1338
      14    H9      21.797236   18.204075   21.559994 H          1 MOL1         0.0993
      15    H10     20.220545   17.464254   21.315734 H          1 MOL1         0.0993
      16    C5      20.635721   19.143967   19.994784 C.3        1 MOL1        -0.1313
      17    H11     21.149650   18.532807   19.239636 H          1 MOL1         0.0993
      18    H12     21.173347   20.101776   20.031963 H          1 MOL1         0.0993
      19    C6      19.179394   19.382755   19.534794 C.3        1 MOL1        -0.2328
      20    H13     18.611552   18.443478   19.517178 H          1 MOL1         0.1004
      21    H14     19.160984   19.804606   18.521564 H          1 MOL1         0.1004
      22    H15     18.658273   20.087752   20.194185 H          1 MOL1         0.1004
      23    C7      19.433725   19.642090   27.505061 C.3        1 MOL1        -0.0781
      24    H16     18.366885   19.783221   27.318247 H          1 MOL1         0.0978
      25    H17     19.577918   19.162301   28.475710 H          1 MOL1         0.0978
      26    H18     19.942822   20.608328   27.491987 H          1 MOL1         0.0978
@<TRIPOS>BOND
    1     1     2    1
    2     1     3    1
    3     1     4    1
    4     4     5    1
    5     4     6    1
    6     4     7    1
    7     7     8    1
    8     7     9    1
    9     7    10    1
   10    10    11    1
   11    10    12    1
   12    10    13    1
   13    13    14    1
   14    13    15    1
   15    13    16    1
   16    16    17    1
   17    16    18    1
   18    16    19    1
   19    19    20    1
   20    19    21    1
   21    19    22    1
   22     1    23    1
   23    23    24    1
   24    23    25    1
   25    23    26    1
@<TRIPOS>SUBSTRUCTURE
       1 MOL1            1 RESIDUE      1      MOL     
@<SCITEGIC>MOL_PROPERTY
VM2 Rank
SciTegic.value.IntegerValue
10

@<SCITEGIC>MOL_PROPERTY
Conf_Id
SciTegic.value.IntegerValue
472

@<SCITEGIC>MOL_PROPERTY
Probability
SciTegic.value.DoubleValue
2.25

@<SCITEGIC>MOL_PROPERTY
Sum Probability
SciTegic.value.DoubleValue
34.04

@<SCITEGIC>MOL_PROPERTY
Delta G
SciTegic.value.DoubleValue
0.686

@<SCITEGIC>MOL_PROPERTY
G
SciTegic.value.DoubleValue
76.152

@<SCITEGIC>MOL_PROPERTY
E
SciTegic.value.DoubleValue
43.880

@<SCITEGIC>MOL_PROPERTY
-TS
SciTegic.value.DoubleValue
32.272

@<SCITEGIC>MOL_PROPERTY
U+W
SciTegic.value.DoubleValue
22.418

@<SCITEGIC>MOL_PROPERTY
U
SciTegic.value.DoubleValue
71.035

@<SCITEGIC>MOL_PROPERTY
W
SciTegic.value.DoubleValue
-48.617

@<SCITEGIC>MOL_PROPERTY
W(PB)
SciTegic.value.DoubleValue
-50.942

@<SCITEGIC>MOL_PROPERTY
W(SA)
SciTegic.value.DoubleValue
2.325

@<SCITEGIC>MOL_PROPERTY
Valence
SciTegic.value.DoubleValue
2.223

@<SCITEGIC>MOL_PROPERTY
Coulomb
SciTegic.value.DoubleValue
68.516

@<SCITEGIC>MOL_PROPERTY
VdW
SciTegic.value.DoubleValue
0.297

@<SCITEGIC>MOL_PROPERTY
VdW6
SciTegic.value.DoubleValue
-5.881

@<SCITEGIC>MOL_PROPERTY
VdW12
SciTegic.value.DoubleValue
6.178

@<SCITEGIC>MOL_PROPERTY
Bond
SciTegic.value.DoubleValue
0.162

@<SCITEGIC>MOL_PROPERTY
Angle
SciTegic.value.DoubleValue
0.596

@<SCITEGIC>MOL_PROPERTY
Pdih
SciTegic.value.DoubleValue
1.465

@<SCITEGIC>MOL_PROPERTY
Idih
SciTegic.value.DoubleValue
0.000

@<SCITEGIC>MOL_PROPERTY
Tether
SciTegic.value.DoubleValue
0.000

@<TRIPOS>MOLECULE
guest-s12_vm2.mol2 : vm2 ligand conformer 11
          26          25           1
SMALL
USER_CHARGES
 
@<TRIPOS>ATOM
       1    N1      19.492930   18.773992   26.321611 N.4        1 MOL1        -0.4857
       2    H1      18.892221   18.022992   26.697203 H          1 MOL1         0.3650
       3    H2      19.147103   19.638580   26.765849 H          1 MOL1         0.3650
       4    C1      19.324320   18.854274   24.813719 C.3        1 MOL1         0.0209
       5    H3      18.251214   18.871748   24.606983 H          1 MOL1         0.0967
       6    H4      19.738547   17.940020   24.382193 H          1 MOL1         0.0967
       7    C2      19.980392   20.089964   24.161528 C.3        1 MOL1        -0.1378
       8    H5      19.605065   20.996547   24.654293 H          1 MOL1         0.0993
       9    H6      21.065500   20.069520   24.325719 H          1 MOL1         0.0993
      10    C3      19.691632   20.186257   22.644871 C.3        1 MOL1        -0.1338
      11    H7      20.106797   21.130646   22.266424 H          1 MOL1         0.0993
      12    H8      18.606186   20.236655   22.480862 H          1 MOL1         0.0993
      13    C4      20.288112   19.008077   21.837480 C.3        1 MOL1        -0.1338
      14    H9      21.367964   18.940857   22.029423 H          1 MOL1         0.0993
      15    H10     19.845898   18.060603   22.173383 H          1 MOL1         0.0993
      16    C5      20.045107   19.170385   20.320334 C.3        1 MOL1        -0.1313
      17    H11     20.491281   20.112202   19.971206 H          1 MOL1         0.0993
      18    H12     18.966111   19.238772   20.122621 H          1 MOL1         0.0993
      19    C6      20.639286   17.994121   19.516411 C.3        1 MOL1        -0.2328
      20    H13     20.457135   18.127562   18.442149 H          1 MOL1         0.1004
      21    H14     20.186884   17.040600   19.818605 H          1 MOL1         0.1004
      22    H15     21.724205   17.920745   19.667302 H          1 MOL1         0.1004
      23    C7      20.946221   18.512930   26.701045 C.3        1 MOL1        -0.0781
      24    H16     21.277915   17.583671   26.232762 H          1 MOL1         0.0978
      25    H17     21.565086   19.343597   26.355999 H          1 MOL1         0.0978
      26    H18     21.021579   18.425741   27.787234 H          1 MOL1         0.0978
@<TRIPOS>BOND
    1     1     2    1
    2     1     3    1
    3     1     4    1
    4     4     5    1
    5     4     6    1
    6     4     7    1
    7     7     8    1
    8     7     9    1
    9     7    10    1
   10    10    11    1
   11    10    12    1
   12    10    13    1
   13    13    14    1
   14    13    15    1
   15    13    16    1
   16    16    17    1
   17    16    18    1
   18    16    19    1
   19    19    20    1
   20    19    21    1
   21    19    22    1
   22     1    23    1
   23    23    24    1
   24    23    25    1
   25    23    26    1
@<TRIPOS>SUBSTRUCTURE
       1 MOL1            1 RESIDUE      1      MOL     
@<SCITEGIC>MOL_PROPERTY
VM2 Rank
SciTegic.value.IntegerValue
11

@<SCITEGIC>MOL_PROPERTY
Conf_Id
SciTegic.value.IntegerValue
857

@<SCITEGIC>MOL_PROPERTY
Probability
SciTegic.value.DoubleValue
2.05

@<SCITEGIC>MOL_PROPERTY
Sum Probability
SciTegic.value.DoubleValue
36.09

@<SCITEGIC>MOL_PROPERTY
Delta G
SciTegic.value.DoubleValue
0.743

@<SCITEGIC>MOL_PROPERTY
G
SciTegic.value.DoubleValue
76.209

@<SCITEGIC>MOL_PROPERTY
E
SciTegic.value.DoubleValue
43.783

@<SCITEGIC>MOL_PROPERTY
-TS
SciTegic.value.DoubleValue
32.426

@<SCITEGIC>MOL_PROPERTY
U+W
SciTegic.value.DoubleValue
22.321

@<SCITEGIC>MOL_PROPERTY
U
SciTegic.value.DoubleValue
71.511

@<SCITEGIC>MOL_PROPERTY
W
SciTegic.value.DoubleValue
-49.190

@<SCITEGIC>MOL_PROPERTY
W(PB)
SciTegic.value.DoubleValue
-51.479

@<SCITEGIC>MOL_PROPERTY
W(SA)
SciTegic.value.DoubleValue
2.289

@<SCITEGIC>MOL_PROPERTY
Valence
SciTegic.value.DoubleValue
2.291

@<SCITEGIC>MOL_PROPERTY
Coulomb
SciTegic.value.DoubleValue
68.784

@<SCITEGIC>MOL_PROPERTY
VdW
SciTegic.value.DoubleValue
0.437

@<SCITEGIC>MOL_PROPERTY
VdW6
SciTegic.value.DoubleValue
-6.615

@<SCITEGIC>MOL_PROPERTY
VdW12
SciTegic.value.DoubleValue
7.052

@<SCITEGIC>MOL_PROPERTY
Bond
SciTegic.value.DoubleValue
0.185

@<SCITEGIC>MOL_PROPERTY
Angle
SciTegic.value.DoubleValue
0.586

@<SCITEGIC>MOL_PROPERTY
Pdih
SciTegic.value.DoubleValue
1.520

@<SCITEGIC>MOL_PROPERTY
Idih
SciTegic.value.DoubleValue
0.000

@<SCITEGIC>MOL_PROPERTY
Tether
SciTegic.value.DoubleValue
0.000

@<TRIPOS>MOLECULE
guest-s12_vm2.mol2 : vm2 ligand conformer 12
          26          25           1
SMALL
USER_CHARGES
 
@<TRIPOS>ATOM
       1    N1      20.443624   18.869666   26.355313 N.4        1 MOL1        -0.4857
       2    H1      20.578472   19.782629   26.816583 H          1 MOL1         0.3650
       3    H2      21.153926   18.250599   26.777388 H          1 MOL1         0.3650
       4    C1      20.698168   18.992514   24.862420 C.3        1 MOL1         0.0209
       5    H3      20.505422   18.017183   24.409387 H          1 MOL1         0.0967
       6    H4      21.758137   19.224615   24.731292 H          1 MOL1         0.0967
       7    C2      19.856705   20.077518   24.157142 C.3        1 MOL1        -0.1378
       8    H5      18.788578   19.840407   24.245004 H          1 MOL1         0.0993
       9    H6      20.008644   21.037157   24.668599 H          1 MOL1         0.0993
      10    C3      20.226118   20.240041   22.663816 C.3        1 MOL1        -0.1338
      11    H7      21.288593   20.506616   22.575946 H          1 MOL1         0.0993
      12    H8      19.658874   21.085552   22.250538 H          1 MOL1         0.0993
      13    C4      19.934161   18.972434   21.824944 C.3        1 MOL1        -0.1338
      14    H9      20.531531   18.129618   22.197640 H          1 MOL1         0.0993
      15    H10     18.878575   18.690215   21.941275 H          1 MOL1         0.0993
      16    C5      20.245599   19.190582   20.327431 C.3        1 MOL1        -0.1313
      17    H11     21.300529   19.473779   20.205273 H          1 MOL1         0.0993
      18    H12     19.646435   20.027177   19.941308 H          1 MOL1         0.0993
      19    C6      19.955228   17.925289   19.492175 C.3        1 MOL1        -0.2328
      20    H13     18.898771   17.636380   19.567215 H          1 MOL1         0.1004
      21    H14     20.566062   17.078784   19.832032 H          1 MOL1         0.1004
      22    H15     20.181967   18.099883   18.432396 H          1 MOL1         0.1004
      23    C7      19.048397   18.321957   26.633760 C.3        1 MOL1        -0.0781
      24    H16     18.302357   19.015279   26.240333 H          1 MOL1         0.0978
      25    H17     18.941915   17.348609   26.149931 H          1 MOL1         0.0978
      26    H18     18.915937   18.213844   27.712579 H          1 MOL1         0.0978
@<TRIPOS>BOND
    1     1     2    1
    2     1     3    1
    3     1     4    1
    4     4     5    1
    5     4     6    1
    6     4     7    1
    7     7     8    1
    8     7     9    1
    9     7    10    1
   10    10    11    1
   11    10    12    1
   12    10    13    1
   13    13    14    1
   14    13    15    1
   15    13    16    1
   16    16    17    1
   17    16    18    1
   18    16    19    1
   19    19    20    1
   20    19    21    1
   21    19    22    1
   22     1    23    1
   23    23    24    1
   24    23    25    1
   25    23    26    1
@<TRIPOS>SUBSTRUCTURE
       1 MOL1            1 RESIDUE      1      MOL     
@<SCITEGIC>MOL_PROPERTY
VM2 Rank
SciTegic.value.IntegerValue
12

@<SCITEGIC>MOL_PROPERTY
Conf_Id
SciTegic.value.IntegerValue
230

@<SCITEGIC>MOL_PROPERTY
Probability
SciTegic.value.DoubleValue
2.04

@<SCITEGIC>MOL_PROPERTY
Sum Probability
SciTegic.value.DoubleValue
38.13

@<SCITEGIC>MOL_PROPERTY
Delta G
SciTegic.value.DoubleValue
0.745

@<SCITEGIC>MOL_PROPERTY
G
SciTegic.value.DoubleValue
76.211

@<SCITEGIC>MOL_PROPERTY
E
SciTegic.value.DoubleValue
43.785

@<SCITEGIC>MOL_PROPERTY
-TS
SciTegic.value.DoubleValue
32.426

@<SCITEGIC>MOL_PROPERTY
U+W
SciTegic.value.DoubleValue
22.323

@<SCITEGIC>MOL_PROPERTY
U
SciTegic.value.DoubleValue
71.512

@<SCITEGIC>MOL_PROPERTY
W
SciTegic.value.DoubleValue
-49.188

@<SCITEGIC>MOL_PROPERTY
W(PB)
SciTegic.value.DoubleValue
-51.478

@<SCITEGIC>MOL_PROPERTY
W(SA)
SciTegic.value.DoubleValue
2.290

@<SCITEGIC>MOL_PROPERTY
Valence
SciTegic.value.DoubleValue
2.291

@<SCITEGIC>MOL_PROPERTY
Coulomb
SciTegic.value.DoubleValue
68.784

@<SCITEGIC>MOL_PROPERTY
VdW
SciTegic.value.DoubleValue
0.437

@<SCITEGIC>MOL_PROPERTY
VdW6
SciTegic.value.DoubleValue
-6.615

@<SCITEGIC>MOL_PROPERTY
VdW12
SciTegic.value.DoubleValue
7.052

@<SCITEGIC>MOL_PROPERTY
Bond
SciTegic.value.DoubleValue
0.185

@<SCITEGIC>MOL_PROPERTY
Angle
SciTegic.value.DoubleValue
0.586

@<SCITEGIC>MOL_PROPERTY
Pdih
SciTegic.value.DoubleValue
1.520

@<SCITEGIC>MOL_PROPERTY
Idih
SciTegic.value.DoubleValue
0.000

@<SCITEGIC>MOL_PROPERTY
Tether
SciTegic.value.DoubleValue
0.000

@<TRIPOS>MOLECULE
guest-s12_vm2.mol2 : vm2 ligand conformer 13
          26          25           1
SMALL
USER_CHARGES
 
@<TRIPOS>ATOM
       1    N1      19.553555   18.550782   26.183616 N.4        1 MOL1        -0.4857
       2    H1      20.070802   17.658159   26.206652 H          1 MOL1         0.3650
       3    H2      18.585701   18.300781   25.927562 H          1 MOL1         0.3650
       4    C1      20.149304   19.473549   25.139342 C.3        1 MOL1         0.0209
       5    H3      21.172956   19.706721   25.443076 H          1 MOL1         0.0967
       6    H4      19.570032   20.400339   25.141149 H          1 MOL1         0.0967
       7    C2      20.154107   18.868661   23.723658 C.3        1 MOL1        -0.1378
       8    H5      20.723437   17.929674   23.730364 H          1 MOL1         0.0993
       9    H6      19.124041   18.621520   23.437755 H          1 MOL1         0.0993
      10    C3      20.772969   19.845791   22.696314 C.3        1 MOL1        -0.1338
      11    H7      21.771723   20.143895   23.044734 H          1 MOL1         0.0993
      12    H8      20.174632   20.766542   22.653490 H          1 MOL1         0.0993
      13    C4      20.907708   19.247661   21.274064 C.3        1 MOL1        -0.1338
      14    H9      21.458858   19.962155   20.647021 H          1 MOL1         0.0993
      15    H10     21.520997   18.336817   21.313887 H          1 MOL1         0.0993
      16    C5      19.549761   18.933313   20.602271 C.3        1 MOL1        -0.1313
      17    H11     18.915714   19.830943   20.608633 H          1 MOL1         0.0993
      18    H12     19.014559   18.161239   21.170760 H          1 MOL1         0.0993
      19    C6      19.732748   18.447117   19.148601 C.3        1 MOL1        -0.2328
      20    H13     20.338660   17.532394   19.111700 H          1 MOL1         0.1004
      21    H14     20.229040   19.210825   18.535709 H          1 MOL1         0.1004
      22    H15     18.760928   18.226046   18.688475 H          1 MOL1         0.1004
      23    C7      19.587847   19.223126   27.549135 C.3        1 MOL1        -0.0781
      24    H16     19.007238   20.147384   27.509083 H          1 MOL1         0.0978
      25    H17     19.156184   18.548238   28.291657 H          1 MOL1         0.0978
      26    H18     20.623654   19.447800   27.812935 H          1 MOL1         0.0978
@<TRIPOS>BOND
    1     1     2    1
    2     1     3    1
    3     1     4    1
    4     4     5    1
    5     4     6    1
    6     4     7    1
    7     7     8    1
    8     7     9    1
    9     7    10    1
   10    10    11    1
   11    10    12    1
   12    10    13    1
   13    13    14    1
   14    13    15    1
   15    13    16    1
   16    16    17    1
   17    16    18    1
   18    16    19    1
   19    19    20    1
   20    19    21    1
   21    19    22    1
   22     1    23    1
   23    23    24    1
   24    23    25    1
   25    23    26    1
@<TRIPOS>SUBSTRUCTURE
       1 MOL1            1 RESIDUE      1      MOL     
@<SCITEGIC>MOL_PROPERTY
VM2 Rank
SciTegic.value.IntegerValue
13

@<SCITEGIC>MOL_PROPERTY
Conf_Id
SciTegic.value.IntegerValue
158

@<SCITEGIC>MOL_PROPERTY
Probability
SciTegic.value.DoubleValue
1.99

@<SCITEGIC>MOL_PROPERTY
Sum Probability
SciTegic.value.DoubleValue
40.12

@<SCITEGIC>MOL_PROPERTY
Delta G
SciTegic.value.DoubleValue
0.759

@<SCITEGIC>MOL_PROPERTY
G
SciTegic.value.DoubleValue
76.225

@<SCITEGIC>MOL_PROPERTY
E
SciTegic.value.DoubleValue
43.964

@<SCITEGIC>MOL_PROPERTY
-TS
SciTegic.value.DoubleValue
32.261

@<SCITEGIC>MOL_PROPERTY
U+W
SciTegic.value.DoubleValue
22.502

@<SCITEGIC>MOL_PROPERTY
U
SciTegic.value.DoubleValue
71.349

@<SCITEGIC>MOL_PROPERTY
W
SciTegic.value.DoubleValue
-48.846

@<SCITEGIC>MOL_PROPERTY
W(PB)
SciTegic.value.DoubleValue
-51.157

@<SCITEGIC>MOL_PROPERTY
W(SA)
SciTegic.value.DoubleValue
2.311

@<SCITEGIC>MOL_PROPERTY
Valence
SciTegic.value.DoubleValue
2.262

@<SCITEGIC>MOL_PROPERTY
Coulomb
SciTegic.value.DoubleValue
68.807

@<SCITEGIC>MOL_PROPERTY
VdW
SciTegic.value.DoubleValue
0.280

@<SCITEGIC>MOL_PROPERTY
VdW6
SciTegic.value.DoubleValue
-5.916

@<SCITEGIC>MOL_PROPERTY
VdW12
SciTegic.value.DoubleValue
6.196

@<SCITEGIC>MOL_PROPERTY
Bond
SciTegic.value.DoubleValue
0.164

@<SCITEGIC>MOL_PROPERTY
Angle
SciTegic.value.DoubleValue
0.622

@<SCITEGIC>MOL_PROPERTY
Pdih
SciTegic.value.DoubleValue
1.475

@<SCITEGIC>MOL_PROPERTY
Idih
SciTegic.value.DoubleValue
0.000

@<SCITEGIC>MOL_PROPERTY
Tether
SciTegic.value.DoubleValue
0.000

@<TRIPOS>MOLECULE
guest-s12_vm2.mol2 : vm2 ligand conformer 14
          26          25           1
SMALL
USER_CHARGES
 
@<TRIPOS>ATOM
       1    N1      20.439741   18.641252   26.215065 N.4        1 MOL1        -0.4857
       2    H1      21.453619   18.593369   26.029160 H          1 MOL1         0.3650
       3    H2      20.112800   17.662519   26.208356 H          1 MOL1         0.3650
       4    C1      19.744716   19.432211   25.125000 C.3        1 MOL1         0.0209
       5    H3      20.123521   20.456775   25.160672 H          1 MOL1         0.0967
       6    H4      18.676364   19.451914   25.354614 H          1 MOL1         0.0967
       7    C2      19.961222   18.848831   23.716858 C.3        1 MOL1        -0.1378
       8    H5      21.037405   18.816717   23.505543 H          1 MOL1         0.0993
       9    H6      19.594086   17.814232   23.690472 H          1 MOL1         0.0993
      10    C3      19.231335   19.688188   22.641710 C.3        1 MOL1        -0.1338
      11    H7      19.632906   20.711082   22.634323 H          1 MOL1         0.0993
      12    H8      18.171052   19.775960   22.917152 H          1 MOL1         0.0993
      13    C4      19.320155   19.085354   21.217841 C.3        1 MOL1        -0.1338
      14    H9      18.902397   18.069081   21.221168 H          1 MOL1         0.0993
      15    H10     18.681216   19.678153   20.548664 H          1 MOL1         0.0993
      16    C5      20.757227   19.056826   20.644997 C.3        1 MOL1        -0.1313
      17    H11     21.396354   18.404881   21.255084 H          1 MOL1         0.0993
      18    H12     21.194667   20.064041   20.689244 H          1 MOL1         0.0993
      19    C6      20.778494   18.554035   19.185620 C.3        1 MOL1        -0.2328
      20    H13     20.374169   17.535970   19.113006 H          1 MOL1         0.1004
      21    H14     21.804700   18.537334   18.796202 H          1 MOL1         0.1004
      22    H15     20.182139   19.205949   18.534037 H          1 MOL1         0.1004
      23    C7      20.175110   19.283302   27.569909 C.3        1 MOL1        -0.0781
      24    H16     20.558780   20.305909   27.563839 H          1 MOL1         0.0978
      25    H17     19.099406   19.292646   27.758959 H          1 MOL1         0.0978
      26    H18     20.680946   18.704146   28.345701 H          1 MOL1         0.0978
@<TRIPOS>BOND
    1     1     2    1
    2     1     3    1
    3     1     4    1
    4     4     5    1
    5     4     6    1
    6     4     7    1
    7     7     8    1
    8     7     9    1
    9     7    10    1
   10    10    11    1
   11    10    12    1
   12    10    13    1
   13    13    14    1
   14    13    15    1
   15    13    16    1
   16    16    17    1
   17    16    18    1
   18    16    19    1
   19    19    20    1
   20    19    21    1
   21    19    22    1
   22     1    23    1
   23    23    24    1
   24    23    25    1
   25    23    26    1
@<TRIPOS>SUBSTRUCTURE
       1 MOL1            1 RESIDUE      1      MOL     
@<SCITEGIC>MOL_PROPERTY
VM2 Rank
SciTegic.value.IntegerValue
14

@<SCITEGIC>MOL_PROPERTY
Conf_Id
SciTegic.value.IntegerValue
1230

@<SCITEGIC>MOL_PROPERTY
Probability
SciTegic.value.DoubleValue
1.96

@<SCITEGIC>MOL_PROPERTY
Sum Probability
SciTegic.value.DoubleValue
42.08

@<SCITEGIC>MOL_PROPERTY
Delta G
SciTegic.value.DoubleValue
0.767

@<SCITEGIC>MOL_PROPERTY
G
SciTegic.value.DoubleValue
76.233

@<SCITEGIC>MOL_PROPERTY
E
SciTegic.value.DoubleValue
43.972

@<SCITEGIC>MOL_PROPERTY
-TS
SciTegic.value.DoubleValue
32.261

@<SCITEGIC>MOL_PROPERTY
U+W
SciTegic.value.DoubleValue
22.511

@<SCITEGIC>MOL_PROPERTY
U
SciTegic.value.DoubleValue
71.349

@<SCITEGIC>MOL_PROPERTY
W
SciTegic.value.DoubleValue
-48.838

@<SCITEGIC>MOL_PROPERTY
W(PB)
SciTegic.value.DoubleValue
-51.151

@<SCITEGIC>MOL_PROPERTY
W(SA)
SciTegic.value.DoubleValue
2.313

@<SCITEGIC>MOL_PROPERTY
Valence
SciTegic.value.DoubleValue
2.262

@<SCITEGIC>MOL_PROPERTY
Coulomb
SciTegic.value.DoubleValue
68.807

@<SCITEGIC>MOL_PROPERTY
VdW
SciTegic.value.DoubleValue
0.280

@<SCITEGIC>MOL_PROPERTY
VdW6
SciTegic.value.DoubleValue
-5.916

@<SCITEGIC>MOL_PROPERTY
VdW12
SciTegic.value.DoubleValue
6.195

@<SCITEGIC>MOL_PROPERTY
Bond
SciTegic.value.DoubleValue
0.164

@<SCITEGIC>MOL_PROPERTY
Angle
SciTegic.value.DoubleValue
0.622

@<SCITEGIC>MOL_PROPERTY
Pdih
SciTegic.value.DoubleValue
1.475

@<SCITEGIC>MOL_PROPERTY
Idih
SciTegic.value.DoubleValue
0.000

@<SCITEGIC>MOL_PROPERTY
Tether
SciTegic.value.DoubleValue
0.000

@<TRIPOS>MOLECULE
guest-s12_vm2.mol2 : vm2 ligand conformer 15
          26          25           1
SMALL
USER_CHARGES
 
@<TRIPOS>ATOM
       1    N1      19.632657   18.306192   26.178758 N.4        1 MOL1        -0.4857
       2    H1      20.399305   17.616539   26.211519 H          1 MOL1         0.3650
       3    H2      18.785287   17.774726   26.434570 H          1 MOL1         0.3650
       4    C1      19.481151   18.857212   24.770696 C.3        1 MOL1         0.0209
       5    H3      18.694425   19.615539   24.788755 H          1 MOL1         0.0967
       6    H4      19.143770   18.033053   24.137813 H          1 MOL1         0.0967
       7    C2      20.773325   19.455481   24.174278 C.3        1 MOL1        -0.1378
       8    H5      21.117290   20.284641   24.805755 H          1 MOL1         0.0993
       9    H6      21.569594   18.699576   24.187696 H          1 MOL1         0.0993
      10    C3      20.578412   19.979445   22.731724 C.3        1 MOL1        -0.1338
      11    H7      21.505186   20.473826   22.409012 H          1 MOL1         0.0993
      12    H8      19.796573   20.751671   22.725156 H          1 MOL1         0.0993
      13    C4      20.219290   18.863459   21.721002 C.3        1 MOL1        -0.1338
      14    H9      20.984807   18.075938   21.755993 H          1 MOL1         0.0993
      15    H10     19.266914   18.394267   22.001640 H          1 MOL1         0.0993
      16    C5      20.108783   19.408531   20.279510 C.3        1 MOL1        -0.1313
      17    H11     21.059922   19.873290   19.984016 H          1 MOL1         0.0993
      18    H12     19.344723   20.197553   20.238750 H          1 MOL1         0.0993
      19    C6      19.749116   18.295187   19.272507 C.3        1 MOL1        -0.2328
      20    H13     19.675724   18.701402   18.255340 H          1 MOL1         0.1004
      21    H14     18.784357   17.834120   19.521208 H          1 MOL1         0.1004
      22    H15     20.513109   17.506852   19.265816 H          1 MOL1         0.1004
      23    C7      19.865268   19.424493   27.188525 C.3        1 MOL1        -0.0781
      24    H16     19.030903   20.127802   27.143482 H          1 MOL1         0.0978
      25    H17     19.930256   18.993392   28.190031 H          1 MOL1         0.0978
      26    H18     20.797865   19.939620   26.950009 H          1 MOL1         0.0978
@<TRIPOS>BOND
    1     1     2    1
    2     1     3    1
    3     1     4    1
    4     4     5    1
    5     4     6    1
    6     4     7    1
    7     7     8    1
    8     7     9    1
    9     7    10    1
   10    10    11    1
   11    10    12    1
   12    10    13    1
   13    13    14    1
   14    13    15    1
   15    13    16    1
   16    16    17    1
   17    16    18    1
   18    16    19    1
   19    19    20    1
   20    19    21    1
   21    19    22    1
   22     1    23    1
   23    23    24    1
   24    23    25    1
   25    23    26    1
@<TRIPOS>SUBSTRUCTURE
       1 MOL1            1 RESIDUE      1      MOL     
@<SCITEGIC>MOL_PROPERTY
VM2 Rank
SciTegic.value.IntegerValue
15

@<SCITEGIC>MOL_PROPERTY
Conf_Id
SciTegic.value.IntegerValue
1304

@<SCITEGIC>MOL_PROPERTY
Probability
SciTegic.value.DoubleValue
1.83

@<SCITEGIC>MOL_PROPERTY
Sum Probability
SciTegic.value.DoubleValue
43.91

@<SCITEGIC>MOL_PROPERTY
Delta G
SciTegic.value.DoubleValue
0.809

@<SCITEGIC>MOL_PROPERTY
G
SciTegic.value.DoubleValue
76.275

@<SCITEGIC>MOL_PROPERTY
E
SciTegic.value.DoubleValue
43.847

@<SCITEGIC>MOL_PROPERTY
-TS
SciTegic.value.DoubleValue
32.428

@<SCITEGIC>MOL_PROPERTY
U+W
SciTegic.value.DoubleValue
22.385

@<SCITEGIC>MOL_PROPERTY
U
SciTegic.value.DoubleValue
71.628

@<SCITEGIC>MOL_PROPERTY
W
SciTegic.value.DoubleValue
-49.242

@<SCITEGIC>MOL_PROPERTY
W(PB)
SciTegic.value.DoubleValue
-51.545

@<SCITEGIC>MOL_PROPERTY
W(SA)
SciTegic.value.DoubleValue
2.302

@<SCITEGIC>MOL_PROPERTY
Valence
SciTegic.value.DoubleValue
2.314

@<SCITEGIC>MOL_PROPERTY
Coulomb
SciTegic.value.DoubleValue
68.823

@<SCITEGIC>MOL_PROPERTY
VdW
SciTegic.value.DoubleValue
0.491

@<SCITEGIC>MOL_PROPERTY
VdW6
SciTegic.value.DoubleValue
-6.572

@<SCITEGIC>MOL_PROPERTY
VdW12
SciTegic.value.DoubleValue
7.063

@<SCITEGIC>MOL_PROPERTY
Bond
SciTegic.value.DoubleValue
0.188

@<SCITEGIC>MOL_PROPERTY
Angle
SciTegic.value.DoubleValue
0.606

@<SCITEGIC>MOL_PROPERTY
Pdih
SciTegic.value.DoubleValue
1.519

@<SCITEGIC>MOL_PROPERTY
Idih
SciTegic.value.DoubleValue
0.000

@<SCITEGIC>MOL_PROPERTY
Tether
SciTegic.value.DoubleValue
0.000

@<TRIPOS>MOLECULE
guest-s12_vm2.mol2 : vm2 ligand conformer 16
          26          25           1
SMALL
USER_CHARGES
 
@<TRIPOS>ATOM
       1    N1      20.412221   18.385823   26.206413 N.4        1 MOL1        -0.4857
       2    H1      21.329356   18.034382   26.524664 H          1 MOL1         0.3650
       3    H2      19.800022   17.555518   26.190508 H          1 MOL1         0.3650
       4    C1      20.547560   18.965949   24.808437 C.3        1 MOL1         0.0209
       5    H3      21.087768   18.231306   24.206705 H          1 MOL1         0.0967
       6    H4      21.161822   19.867304   24.875983 H          1 MOL1         0.0967
       7    C2      19.206210   19.295293   24.118749 C.3        1 MOL1        -0.1378
       8    H5      18.580007   18.394117   24.081742 H          1 MOL1         0.0993
       9    H6      18.658562   20.033374   24.718666 H          1 MOL1         0.0993
      10    C3      19.391873   19.858179   22.689703 C.3        1 MOL1        -0.1338
      11    H7      20.000188   20.772387   22.732435 H          1 MOL1         0.0993
      12    H8      18.409300   20.157563   22.299338 H          1 MOL1         0.0993
      13    C4      20.038846   18.844995   21.714596 C.3        1 MOL1        -0.1338
      14    H9      21.044268   18.575715   22.064640 H          1 MOL1         0.0993
      15    H10     19.447548   17.918916   21.701414 H          1 MOL1         0.0993
      16    C5      20.137817   19.411555   20.280573 C.3        1 MOL1        -0.1313
      17    H11     20.727756   20.338875   20.287906 H          1 MOL1         0.0993
      18    H12     19.135537   19.676812   19.915804 H          1 MOL1         0.0993
      19    C6      20.784601   18.401073   19.309209 C.3        1 MOL1        -0.2328
      20    H13     20.845605   18.821078   18.296835 H          1 MOL1         0.1004
      21    H14     20.197923   17.474777   19.254548 H          1 MOL1         0.1004
      22    H15     21.802720   18.142525   19.628238 H          1 MOL1         0.1004
      23    C7      19.888873   19.427134   27.189321 C.3        1 MOL1        -0.0781
      24    H16     19.842249   18.984757   28.186925 H          1 MOL1         0.0978
      25    H17     20.565375   20.284522   27.197641 H          1 MOL1         0.0978
      26    H18     18.890586   19.745316   26.882457 H          1 MOL1         0.0978
@<TRIPOS>BOND
    1     1     2    1
    2     1     3    1
    3     1     4    1
    4     4     5    1
    5     4     6    1
    6     4     7    1
    7     7     8    1
    8     7     9    1
    9     7    10    1
   10    10    11    1
   11    10    12    1
   12    10    13    1
   13    13    14    1
   14    13    15    1
   15    13    16    1
   16    16    17    1
   17    16    18    1
   18    16    19    1
   19    19    20    1
   20    19    21    1
   21    19    22    1
   22     1    23    1
   23    23    24    1
   24    23    25    1
   25    23    26    1
@<TRIPOS>SUBSTRUCTURE
       1 MOL1            1 RESIDUE      1      MOL     
@<SCITEGIC>MOL_PROPERTY
VM2 Rank
SciTegic.value.IntegerValue
16

@<SCITEGIC>MOL_PROPERTY
Conf_Id
SciTegic.value.IntegerValue
1270

@<SCITEGIC>MOL_PROPERTY
Probability
SciTegic.value.DoubleValue
1.73

@<SCITEGIC>MOL_PROPERTY
Sum Probability
SciTegic.value.DoubleValue
45.64

@<SCITEGIC>MOL_PROPERTY
Delta G
SciTegic.value.DoubleValue
0.843

@<SCITEGIC>MOL_PROPERTY
G
SciTegic.value.DoubleValue
76.309

@<SCITEGIC>MOL_PROPERTY
E
SciTegic.value.DoubleValue
43.882

@<SCITEGIC>MOL_PROPERTY
-TS
SciTegic.value.DoubleValue
32.428

@<SCITEGIC>MOL_PROPERTY
U+W
SciTegic.value.DoubleValue
22.420

@<SCITEGIC>MOL_PROPERTY
U
SciTegic.value.DoubleValue
71.628

@<SCITEGIC>MOL_PROPERTY
W
SciTegic.value.DoubleValue
-49.208

@<SCITEGIC>MOL_PROPERTY
W(PB)
SciTegic.value.DoubleValue
-51.516

@<SCITEGIC>MOL_PROPERTY
W(SA)
SciTegic.value.DoubleValue
2.308

@<SCITEGIC>MOL_PROPERTY
Valence
SciTegic.value.DoubleValue
2.314

@<SCITEGIC>MOL_PROPERTY
Coulomb
SciTegic.value.DoubleValue
68.823

@<SCITEGIC>MOL_PROPERTY
VdW
SciTegic.value.DoubleValue
0.491

@<SCITEGIC>MOL_PROPERTY
VdW6
SciTegic.value.DoubleValue
-6.572

@<SCITEGIC>MOL_PROPERTY
VdW12
SciTegic.value.DoubleValue
7.063

@<SCITEGIC>MOL_PROPERTY
Bond
SciTegic.value.DoubleValue
0.188

@<SCITEGIC>MOL_PROPERTY
Angle
SciTegic.value.DoubleValue
0.606

@<SCITEGIC>MOL_PROPERTY
Pdih
SciTegic.value.DoubleValue
1.519

@<SCITEGIC>MOL_PROPERTY
Idih
SciTegic.value.DoubleValue
0.000

@<SCITEGIC>MOL_PROPERTY
Tether
SciTegic.value.DoubleValue
0.000

@<TRIPOS>MOLECULE
guest-s12_vm2.mol2 : vm2 ligand conformer 17
          26          25           1
SMALL
USER_CHARGES
 
@<TRIPOS>ATOM
       1    N1      19.568058   18.575906   26.454238 N.4        1 MOL1        -0.4857
       2    H1      20.046095   17.661827   26.474794 H          1 MOL1         0.3650
       3    H2      18.721029   18.446322   27.030199 H          1 MOL1         0.3650
       4    C1      19.166369   18.926904   25.031342 C.3        1 MOL1         0.0209
       5    H3      18.701222   19.915735   25.047056 H          1 MOL1         0.0967
       6    H4      18.410541   18.201633   24.719300 H          1 MOL1         0.0967
       7    C2      20.326820   18.909187   24.015613 C.3        1 MOL1        -0.1378
       8    H5      21.079885   19.655505   24.299737 H          1 MOL1         0.0993
       9    H6      20.819213   17.928085   24.042253 H          1 MOL1         0.0993
      10    C3      19.826619   19.200720   22.583360 C.3        1 MOL1        -0.1338
      11    H7      19.332378   20.181927   22.561172 H          1 MOL1         0.0993
      12    H8      19.068266   18.455280   22.309630 H          1 MOL1         0.0993
      13    C4      20.982834   19.179984   21.554447 C.3        1 MOL1        -0.1338
      14    H9      21.765565   19.879216   21.879762 H          1 MOL1         0.0993
      15    H10     21.446459   18.183936   21.537522 H          1 MOL1         0.0993
      16    C5      20.541780   19.568778   20.122404 C.3        1 MOL1        -0.1313
      17    H11     21.434007   19.632166   19.483812 H          1 MOL1         0.0993
      18    H12     20.097973   20.574163   20.130095 H          1 MOL1         0.0993
      19    C6      19.548210   18.566726   19.491378 C.3        1 MOL1        -0.2328
      20    H13     18.590316   18.557237   20.025919 H          1 MOL1         0.1004
      21    H14     19.956663   17.547847   19.498305 H          1 MOL1         0.1004
      22    H15     19.340332   18.837428   18.448096 H          1 MOL1         0.1004
      23    C7      20.447310   19.661795   27.064218 C.3        1 MOL1        -0.0781
      24    H16     19.908886   20.611848   27.045675 H          1 MOL1         0.0978
      25    H17     20.683731   19.392161   28.095961 H          1 MOL1         0.0978
      26    H18     21.370051   19.747098   26.486880 H          1 MOL1         0.0978
@<TRIPOS>BOND
    1     1     2    1
    2     1     3    1
    3     1     4    1
    4     4     5    1
    5     4     6    1
    6     4     7    1
    7     7     8    1
    8     7     9    1
    9     7    10    1
   10    10    11    1
   11    10    12    1
   12    10    13    1
   13    13    14    1
   14    13    15    1
   15    13    16    1
   16    16    17    1
   17    16    18    1
   18    16    19    1
   19    19    20    1
   20    19    21    1
   21    19    22    1
   22     1    23    1
   23    23    24    1
   24    23    25    1
   25    23    26    1
@<TRIPOS>SUBSTRUCTURE
       1 MOL1            1 RESIDUE      1      MOL     
@<SCITEGIC>MOL_PROPERTY
VM2 Rank
SciTegic.value.IntegerValue
17

@<SCITEGIC>MOL_PROPERTY
Conf_Id
SciTegic.value.IntegerValue
573

@<SCITEGIC>MOL_PROPERTY
Probability
SciTegic.value.DoubleValue
1.56

@<SCITEGIC>MOL_PROPERTY
Sum Probability
SciTegic.value.DoubleValue
47.21

@<SCITEGIC>MOL_PROPERTY
Delta G
SciTegic.value.DoubleValue
0.903

@<SCITEGIC>MOL_PROPERTY
G
SciTegic.value.DoubleValue
76.370

@<SCITEGIC>MOL_PROPERTY
E
SciTegic.value.DoubleValue
43.927

@<SCITEGIC>MOL_PROPERTY
-TS
SciTegic.value.DoubleValue
32.443

@<SCITEGIC>MOL_PROPERTY
U+W
SciTegic.value.DoubleValue
22.465

@<SCITEGIC>MOL_PROPERTY
U
SciTegic.value.DoubleValue
71.429

@<SCITEGIC>MOL_PROPERTY
W
SciTegic.value.DoubleValue
-48.965

@<SCITEGIC>MOL_PROPERTY
W(PB)
SciTegic.value.DoubleValue
-51.237

@<SCITEGIC>MOL_PROPERTY
W(SA)
SciTegic.value.DoubleValue
2.272

@<SCITEGIC>MOL_PROPERTY
Valence
SciTegic.value.DoubleValue
2.501

@<SCITEGIC>MOL_PROPERTY
Coulomb
SciTegic.value.DoubleValue
68.364

@<SCITEGIC>MOL_PROPERTY
VdW
SciTegic.value.DoubleValue
0.564

@<SCITEGIC>MOL_PROPERTY
VdW6
SciTegic.value.DoubleValue
-6.586

@<SCITEGIC>MOL_PROPERTY
VdW12
SciTegic.value.DoubleValue
7.150

@<SCITEGIC>MOL_PROPERTY
Bond
SciTegic.value.DoubleValue
0.197

@<SCITEGIC>MOL_PROPERTY
Angle
SciTegic.value.DoubleValue
0.716

@<SCITEGIC>MOL_PROPERTY
Pdih
SciTegic.value.DoubleValue
1.588

@<SCITEGIC>MOL_PROPERTY
Idih
SciTegic.value.DoubleValue
0.000

@<SCITEGIC>MOL_PROPERTY
Tether
SciTegic.value.DoubleValue
0.000

@<TRIPOS>MOLECULE
guest-s12_vm2.mol2 : vm2 ligand conformer 18
          26          25           1
SMALL
USER_CHARGES
 
@<TRIPOS>ATOM
       1    N1      19.477624   19.168778   26.494129 N.4        1 MOL1        -0.4857
       2    H1      19.086362   18.220952   26.608254 H          1 MOL1         0.3650
       3    H2      18.899890   19.770272   27.102744 H          1 MOL1         0.3650
       4    C1      19.339484   19.623941   25.050898 C.3        1 MOL1         0.0209
       5    H3      19.799738   20.611351   24.963826 H          1 MOL1         0.0967
       6    H4      18.271251   19.728427   24.844426 H          1 MOL1         0.0967
       7    C2      19.958117   18.663593   24.014717 C.3        1 MOL1        -0.1378
       8    H5      21.037806   18.572878   24.190547 H          1 MOL1         0.0993
       9    H6      19.525424   17.662564   24.142774 H          1 MOL1         0.0993
      10    C3      19.711619   19.156840   22.571643 C.3        1 MOL1        -0.1338
      11    H7      20.137526   20.162676   22.459245 H          1 MOL1         0.0993
      12    H8      18.630767   19.246217   22.394765 H          1 MOL1         0.0993
      13    C4      20.330480   18.201112   21.523071 C.3        1 MOL1        -0.1338
      14    H9      21.418849   18.149426   21.664939 H          1 MOL1         0.0993
      15    H10     19.948426   17.185072   21.693723 H          1 MOL1         0.0993
      16    C5      20.018806   18.603601   20.061124 C.3        1 MOL1        -0.1313
      17    H11     18.930982   18.634606   19.907835 H          1 MOL1         0.0993
      18    H12     20.400872   17.820808   19.390940 H          1 MOL1         0.0993
      19    C6      20.640565   19.957828   19.650062 C.3        1 MOL1        -0.2328
      20    H13     21.724859   19.962949   19.821166 H          1 MOL1         0.1004
      21    H14     20.199641   20.791209   20.210816 H          1 MOL1         0.1004
      22    H15     20.468646   20.151313   18.583319 H          1 MOL1         0.1004
      23    C7      20.931305   19.214306   26.951356 C.3        1 MOL1        -0.0781
      24    H16     21.311743   20.231642   26.836731 H          1 MOL1         0.0978
      25    H17     20.984999   18.916760   28.000963 H          1 MOL1         0.0978
      26    H18     21.523315   18.526362   26.344474 H          1 MOL1         0.0978
@<TRIPOS>BOND
    1     1     2    1
    2     1     3    1
    3     1     4    1
    4     4     5    1
    5     4     6    1
    6     4     7    1
    7     7     8    1
    8     7     9    1
    9     7    10    1
   10    10    11    1
   11    10    12    1
   12    10    13    1
   13    13    14    1
   14    13    15    1
   15    13    16    1
   16    16    17    1
   17    16    18    1
   18    16    19    1
   19    19    20    1
   20    19    21    1
   21    19    22    1
   22     1    23    1
   23    23    24    1
   24    23    25    1
   25    23    26    1
@<TRIPOS>SUBSTRUCTURE
       1 MOL1            1 RESIDUE      1      MOL     
@<SCITEGIC>MOL_PROPERTY
VM2 Rank
SciTegic.value.IntegerValue
18

@<SCITEGIC>MOL_PROPERTY
Conf_Id
SciTegic.value.IntegerValue
1018

@<SCITEGIC>MOL_PROPERTY
Probability
SciTegic.value.DoubleValue
1.50

@<SCITEGIC>MOL_PROPERTY
Sum Probability
SciTegic.value.DoubleValue
48.71

@<SCITEGIC>MOL_PROPERTY
Delta G
SciTegic.value.DoubleValue
0.929

@<SCITEGIC>MOL_PROPERTY
G
SciTegic.value.DoubleValue
76.395

@<SCITEGIC>MOL_PROPERTY
E
SciTegic.value.DoubleValue
43.952

@<SCITEGIC>MOL_PROPERTY
-TS
SciTegic.value.DoubleValue
32.443

@<SCITEGIC>MOL_PROPERTY
U+W
SciTegic.value.DoubleValue
22.490

@<SCITEGIC>MOL_PROPERTY
U
SciTegic.value.DoubleValue
71.422

@<SCITEGIC>MOL_PROPERTY
W
SciTegic.value.DoubleValue
-48.932

@<SCITEGIC>MOL_PROPERTY
W(PB)
SciTegic.value.DoubleValue
-51.231

@<SCITEGIC>MOL_PROPERTY
W(SA)
SciTegic.value.DoubleValue
2.299

@<SCITEGIC>MOL_PROPERTY
Valence
SciTegic.value.DoubleValue
2.501

@<SCITEGIC>MOL_PROPERTY
Coulomb
SciTegic.value.DoubleValue
68.359

@<SCITEGIC>MOL_PROPERTY
VdW
SciTegic.value.DoubleValue
0.562

@<SCITEGIC>MOL_PROPERTY
VdW6
SciTegic.value.DoubleValue
-6.587

@<SCITEGIC>MOL_PROPERTY
VdW12
SciTegic.value.DoubleValue
7.149

@<SCITEGIC>MOL_PROPERTY
Bond
SciTegic.value.DoubleValue
0.197

@<SCITEGIC>MOL_PROPERTY
Angle
SciTegic.value.DoubleValue
0.717

@<SCITEGIC>MOL_PROPERTY
Pdih
SciTegic.value.DoubleValue
1.587

@<SCITEGIC>MOL_PROPERTY
Idih
SciTegic.value.DoubleValue
0.000

@<SCITEGIC>MOL_PROPERTY
Tether
SciTegic.value.DoubleValue
0.000

@<TRIPOS>MOLECULE
guest-s12_vm2.mol2 : vm2 ligand conformer 19
          26          25           1
SMALL
USER_CHARGES
 
@<TRIPOS>ATOM
       1    N1      20.367313   19.260079   26.525667 N.4        1 MOL1        -0.4857
       2    H1      20.766913   19.961885   27.168917 H          1 MOL1         0.3650
       3    H2      20.933745   18.410544   26.673753 H          1 MOL1         0.3650
       4    C1      20.511015   19.744161   25.092422 C.3        1 MOL1         0.0209
       5    H3      21.547613   20.064707   24.960568 H          1 MOL1         0.0967
       6    H4      19.867241   20.618241   24.966214 H          1 MOL1         0.0967
       7    C2      20.174282   18.685746   24.022366 C.3        1 MOL1        -0.1378
       8    H5      20.791130   17.792495   24.187545 H          1 MOL1         0.0993
       9    H6      19.125888   18.376473   24.122835 H          1 MOL1         0.0993
      10    C3      20.415891   19.229178   22.596592 C.3        1 MOL1        -0.1338
      11    H7      21.465748   19.537450   22.495180 H          1 MOL1         0.0993
      12    H8      19.803541   20.128357   22.447447 H          1 MOL1         0.0993
      13    C4      20.078962   18.175286   21.514143 C.3        1 MOL1        -0.1338
      14    H9      20.646508   17.256808   21.718384 H          1 MOL1         0.0993
      15    H10     19.016571   17.902607   21.579854 H          1 MOL1         0.0993
      16    C5      20.403934   18.643234   20.074753 C.3        1 MOL1        -0.1313
      17    H11     20.236727   17.804005   19.385098 H          1 MOL1         0.0993
      18    H12     21.470782   18.895683   19.997777 H          1 MOL1         0.0993
      19    C6      19.550366   19.845847   19.611471 C.3        1 MOL1        -0.2328
      20    H13     18.478381   19.629361   19.706212 H          1 MOL1         0.1004
      21    H14     19.753629   20.077910   18.558019 H          1 MOL1         0.1004
      22    H15     19.772448   20.747358   20.195716 H          1 MOL1         0.1004
      23    C7      18.906237   19.006471   26.879586 C.3        1 MOL1        -0.0781
      24    H16     18.510124   18.217055   26.237740 H          1 MOL1         0.0978
      25    H17     18.840611   18.696767   27.924989 H          1 MOL1         0.0978
      26    H18     18.336297   19.926250   26.731195 H          1 MOL1         0.0978
@<TRIPOS>BOND
    1     1     2    1
    2     1     3    1
    3     1     4    1
    4     4     5    1
    5     4     6    1
    6     4     7    1
    7     7     8    1
    8     7     9    1
    9     7    10    1
   10    10    11    1
   11    10    12    1
   12    10    13    1
   13    13    14    1
   14    13    15    1
   15    13    16    1
   16    16    17    1
   17    16    18    1
   18    16    19    1
   19    19    20    1
   20    19    21    1
   21    19    22    1
   22     1    23    1
   23    23    24    1
   24    23    25    1
   25    23    26    1
@<TRIPOS>SUBSTRUCTURE
       1 MOL1            1 RESIDUE      1      MOL     
@<SCITEGIC>MOL_PROPERTY
VM2 Rank
SciTegic.value.IntegerValue
19

@<SCITEGIC>MOL_PROPERTY
Conf_Id
SciTegic.value.IntegerValue
574

@<SCITEGIC>MOL_PROPERTY
Probability
SciTegic.value.DoubleValue
1.49

@<SCITEGIC>MOL_PROPERTY
Sum Probability
SciTegic.value.DoubleValue
50.20

@<SCITEGIC>MOL_PROPERTY
Delta G
SciTegic.value.DoubleValue
0.932

@<SCITEGIC>MOL_PROPERTY
G
SciTegic.value.DoubleValue
76.398

@<SCITEGIC>MOL_PROPERTY
E
SciTegic.value.DoubleValue
43.955

@<SCITEGIC>MOL_PROPERTY
-TS
SciTegic.value.DoubleValue
32.443

@<SCITEGIC>MOL_PROPERTY
U+W
SciTegic.value.DoubleValue
22.493

@<SCITEGIC>MOL_PROPERTY
U
SciTegic.value.DoubleValue
71.422

@<SCITEGIC>MOL_PROPERTY
W
SciTegic.value.DoubleValue
-48.929

@<SCITEGIC>MOL_PROPERTY
W(PB)
SciTegic.value.DoubleValue
-51.221

@<SCITEGIC>MOL_PROPERTY
W(SA)
SciTegic.value.DoubleValue
2.292

@<SCITEGIC>MOL_PROPERTY
Valence
SciTegic.value.DoubleValue
2.501

@<SCITEGIC>MOL_PROPERTY
Coulomb
SciTegic.value.DoubleValue
68.359

@<SCITEGIC>MOL_PROPERTY
VdW
SciTegic.value.DoubleValue
0.562

@<SCITEGIC>MOL_PROPERTY
VdW6
SciTegic.value.DoubleValue
-6.587

@<SCITEGIC>MOL_PROPERTY
VdW12
SciTegic.value.DoubleValue
7.149

@<SCITEGIC>MOL_PROPERTY
Bond
SciTegic.value.DoubleValue
0.197

@<SCITEGIC>MOL_PROPERTY
Angle
SciTegic.value.DoubleValue
0.717

@<SCITEGIC>MOL_PROPERTY
Pdih
SciTegic.value.DoubleValue
1.587

@<SCITEGIC>MOL_PROPERTY
Idih
SciTegic.value.DoubleValue
0.000

@<SCITEGIC>MOL_PROPERTY
Tether
SciTegic.value.DoubleValue
0.000

@<TRIPOS>MOLECULE
guest-s12_vm2.mol2 : vm2 ligand conformer 20
          26          25           1
SMALL
USER_CHARGES
 
@<TRIPOS>ATOM
       1    N1      20.401844   18.661126   26.483783 N.4        1 MOL1        -0.4857
       2    H1      21.215105   18.701451   27.118577 H          1 MOL1         0.3650
       3    H2      20.118424   17.669102   26.477288 H          1 MOL1         0.3650
       4    C1      20.822858   19.096438   25.090066 C.3        1 MOL1         0.0209
       5    H3      21.729698   18.541287   24.836859 H          1 MOL1         0.0967
       6    H4      21.076151   20.158765   25.131337 H          1 MOL1         0.0967
       7    C2      19.764008   18.851806   23.995689 C.3        1 MOL1        -0.1378
       8    H5      19.479425   17.791271   23.994814 H          1 MOL1         0.0993
       9    H6      18.857632   19.428479   24.220989 H          1 MOL1         0.0993
      10    C3      20.294069   19.248622   22.599937 C.3        1 MOL1        -0.1338
      11    H7      21.204640   18.673716   22.385330 H          1 MOL1         0.0993
      12    H8      20.580238   20.309571   22.605408 H          1 MOL1         0.0993
      13    C4      19.240835   19.002147   21.492745 C.3        1 MOL1        -0.1338
      14    H9      18.990218   17.933149   21.450572 H          1 MOL1         0.0993
      15    H10     18.312221   19.526610   21.757392 H          1 MOL1         0.0993
      16    C5      19.693509   19.482147   20.092343 C.3        1 MOL1        -0.1313
      17    H11     19.923847   20.556284   20.123923 H          1 MOL1         0.0993
      18    H12     18.853731   19.368917   19.392461 H          1 MOL1         0.0993
      19    C6      20.910354   18.705535   19.539492 C.3        1 MOL1        -0.2328
      20    H13     21.131923   19.020156   18.511459 H          1 MOL1         0.1004
      21    H14     20.716183   17.625220   19.524924 H          1 MOL1         0.1004
      22    H15     21.810674   18.885409   20.139868 H          1 MOL1         0.1004
      23    C7      19.280523   19.542179   27.022945 C.3        1 MOL1        -0.0781
      24    H16     19.615535   20.581627   27.035517 H          1 MOL1         0.0978
      25    H17     18.402393   19.443245   26.381736 H          1 MOL1         0.0978
      26    H18     19.031820   19.222752   28.037443 H          1 MOL1         0.0978
@<TRIPOS>BOND
    1     1     2    1
    2     1     3    1
    3     1     4    1
    4     4     5    1
    5     4     6    1
    6     4     7    1
    7     7     8    1
    8     7     9    1
    9     7    10    1
   10    10    11    1
   11    10    12    1
   12    10    13    1
   13    13    14    1
   14    13    15    1
   15    13    16    1
   16    16    17    1
   17    16    18    1
   18    16    19    1
   19    19    20    1
   20    19    21    1
   21    19    22    1
   22     1    23    1
   23    23    24    1
   24    23    25    1
   25    23    26    1
@<TRIPOS>SUBSTRUCTURE
       1 MOL1            1 RESIDUE      1      MOL     
@<SCITEGIC>MOL_PROPERTY
VM2 Rank
SciTegic.value.IntegerValue
20

@<SCITEGIC>MOL_PROPERTY
Conf_Id
SciTegic.value.IntegerValue
1038

@<SCITEGIC>MOL_PROPERTY
Probability
SciTegic.value.DoubleValue
1.44

@<SCITEGIC>MOL_PROPERTY
Sum Probability
SciTegic.value.DoubleValue
51.63

@<SCITEGIC>MOL_PROPERTY
Delta G
SciTegic.value.DoubleValue
0.954

@<SCITEGIC>MOL_PROPERTY
G
SciTegic.value.DoubleValue
76.420

@<SCITEGIC>MOL_PROPERTY
E
SciTegic.value.DoubleValue
43.977

@<SCITEGIC>MOL_PROPERTY
-TS
SciTegic.value.DoubleValue
32.443

@<SCITEGIC>MOL_PROPERTY
U+W
SciTegic.value.DoubleValue
22.515

@<SCITEGIC>MOL_PROPERTY
U
SciTegic.value.DoubleValue
71.429

@<SCITEGIC>MOL_PROPERTY
W
SciTegic.value.DoubleValue
-48.914

@<SCITEGIC>MOL_PROPERTY
W(PB)
SciTegic.value.DoubleValue
-51.188

@<SCITEGIC>MOL_PROPERTY
W(SA)
SciTegic.value.DoubleValue
2.274

@<SCITEGIC>MOL_PROPERTY
Valence
SciTegic.value.DoubleValue
2.501

@<SCITEGIC>MOL_PROPERTY
Coulomb
SciTegic.value.DoubleValue
68.364

@<SCITEGIC>MOL_PROPERTY
VdW
SciTegic.value.DoubleValue
0.564

@<SCITEGIC>MOL_PROPERTY
VdW6
SciTegic.value.DoubleValue
-6.585

@<SCITEGIC>MOL_PROPERTY
VdW12
SciTegic.value.DoubleValue
7.149

@<SCITEGIC>MOL_PROPERTY
Bond
SciTegic.value.DoubleValue
0.197

@<SCITEGIC>MOL_PROPERTY
Angle
SciTegic.value.DoubleValue
0.716

@<SCITEGIC>MOL_PROPERTY
Pdih
SciTegic.value.DoubleValue
1.588

@<SCITEGIC>MOL_PROPERTY
Idih
SciTegic.value.DoubleValue
0.000

@<SCITEGIC>MOL_PROPERTY
Tether
SciTegic.value.DoubleValue
0.000

@<TRIPOS>MOLECULE
guest-s12_vm2.mol2 : vm2 ligand conformer 21
          26          25           1
SMALL
USER_CHARGES
 
@<TRIPOS>ATOM
       1    N1      20.041511   18.797089   26.429981 N.4        1 MOL1        -0.4857
       2    H1      20.450282   17.849911   26.415242 H          1 MOL1         0.3650
       3    H2      19.459400   18.822432   27.282316 H          1 MOL1         0.3650
       4    C1      19.162961   19.009337   25.208332 C.3        1 MOL1         0.0209
       5    H3      18.783072   20.033560   25.240650 H          1 MOL1         0.0967
       6    H4      18.312122   18.329221   25.298718 H          1 MOL1         0.0967
       7    C2      19.867470   18.753568   23.860405 C.3        1 MOL1        -0.1378
       8    H5      20.705324   19.452426   23.750436 H          1 MOL1         0.0993
       9    H6      20.288274   17.739450   23.856721 H          1 MOL1         0.0993
      10    C3      18.886604   18.914635   22.675032 C.3        1 MOL1        -0.1338
      11    H7      18.502012   19.943735   22.649772 H          1 MOL1         0.0993
      12    H8      18.016120   18.264861   22.841679 H          1 MOL1         0.0993
      13    C4      19.508621   18.559009   21.301931 C.3        1 MOL1        -0.1338
      14    H9      19.877508   17.524175   21.321373 H          1 MOL1         0.0993
      15    H10     18.714908   18.588193   20.542583 H          1 MOL1         0.0993
      16    C5      20.649745   19.511662   20.872392 C.3        1 MOL1        -0.1313
      17    H11     21.489883   19.439292   21.575704 H          1 MOL1         0.0993
      18    H12     20.296553   20.551890   20.903548 H          1 MOL1         0.0993
      19    C6      21.158043   19.186821   19.451433 C.3        1 MOL1        -0.2328
      20    H13     21.545898   18.161303   19.395860 H          1 MOL1         0.1004
      21    H14     21.968377   19.869316   19.164065 H          1 MOL1         0.1004
      22    H15     20.354031   19.288785   18.710919 H          1 MOL1         0.1004
      23    C7      21.133045   19.857879   26.517494 C.3        1 MOL1        -0.0781
      24    H16     21.717563   19.694647   27.425672 H          1 MOL1         0.0978
      25    H17     21.783569   19.780873   25.644048 H          1 MOL1         0.0978
      26    H18     20.670508   20.846753   26.549669 H          1 MOL1         0.0978
@<TRIPOS>BOND
    1     1     2    1
    2     1     3    1
    3     1     4    1
    4     4     5    1
    5     4     6    1
    6     4     7    1
    7     7     8    1
    8     7     9    1
    9     7    10    1
   10    10    11    1
   11    10    12    1
   12    10    13    1
   13    13    14    1
   14    13    15    1
   15    13    16    1
   16    16    17    1
   17    16    18    1
   18    16    19    1
   19    19    20    1
   20    19    21    1
   21    19    22    1
   22     1    23    1
   23    23    24    1
   24    23    25    1
   25    23    26    1
@<TRIPOS>SUBSTRUCTURE
       1 MOL1            1 RESIDUE      1      MOL     
@<SCITEGIC>MOL_PROPERTY
VM2 Rank
SciTegic.value.IntegerValue
21

@<SCITEGIC>MOL_PROPERTY
Conf_Id
SciTegic.value.IntegerValue
1317

@<SCITEGIC>MOL_PROPERTY
Probability
SciTegic.value.DoubleValue
1.38

@<SCITEGIC>MOL_PROPERTY
Sum Probability
SciTegic.value.DoubleValue
53.01

@<SCITEGIC>MOL_PROPERTY
Delta G
SciTegic.value.DoubleValue
0.978

@<SCITEGIC>MOL_PROPERTY
G
SciTegic.value.DoubleValue
76.444

@<SCITEGIC>MOL_PROPERTY
E
SciTegic.value.DoubleValue
44.012

@<SCITEGIC>MOL_PROPERTY
-TS
SciTegic.value.DoubleValue
32.432

@<SCITEGIC>MOL_PROPERTY
U+W
SciTegic.value.DoubleValue
22.551

@<SCITEGIC>MOL_PROPERTY
U
SciTegic.value.DoubleValue
71.707

@<SCITEGIC>MOL_PROPERTY
W
SciTegic.value.DoubleValue
-49.155

@<SCITEGIC>MOL_PROPERTY
W(PB)
SciTegic.value.DoubleValue
-51.436

@<SCITEGIC>MOL_PROPERTY
W(SA)
SciTegic.value.DoubleValue
2.281

@<SCITEGIC>MOL_PROPERTY
Valence
SciTegic.value.DoubleValue
2.540

@<SCITEGIC>MOL_PROPERTY
Coulomb
SciTegic.value.DoubleValue
68.632

@<SCITEGIC>MOL_PROPERTY
VdW
SciTegic.value.DoubleValue
0.535

@<SCITEGIC>MOL_PROPERTY
VdW6
SciTegic.value.DoubleValue
-6.648

@<SCITEGIC>MOL_PROPERTY
VdW12
SciTegic.value.DoubleValue
7.183

@<SCITEGIC>MOL_PROPERTY
Bond
SciTegic.value.DoubleValue
0.201

@<SCITEGIC>MOL_PROPERTY
Angle
SciTegic.value.DoubleValue
0.741

@<SCITEGIC>MOL_PROPERTY
Pdih
SciTegic.value.DoubleValue
1.598

@<SCITEGIC>MOL_PROPERTY
Idih
SciTegic.value.DoubleValue
0.000

@<SCITEGIC>MOL_PROPERTY
Tether
SciTegic.value.DoubleValue
0.000

@<TRIPOS>MOLECULE
guest-s12_vm2.mol2 : vm2 ligand conformer 22
          26          25           1
SMALL
USER_CHARGES
 
@<TRIPOS>ATOM
       1    N1      19.381449   18.768676   26.319764 N.4        1 MOL1        -0.4857
       2    H1      18.843747   17.929495   26.053181 H          1 MOL1         0.3650
       3    H2      18.852069   19.186772   27.101386 H          1 MOL1         0.3650
       4    C1      19.434647   19.749300   25.160081 C.3        1 MOL1         0.0209
       5    H3      20.042076   20.603557   25.469372 H          1 MOL1         0.0967
       6    H4      18.415046   20.103180   24.987302 H          1 MOL1         0.0967
       7    C2      19.989018   19.159420   23.847320 C.3        1 MOL1        -0.1378
       8    H5      21.025122   18.829794   23.997365 H          1 MOL1         0.0993
       9    H6      19.402025   18.271982   23.580124 H          1 MOL1         0.0993
      10    C3      19.938895   20.196793   22.700825 C.3        1 MOL1        -0.1338
      11    H7      20.461051   21.108728   23.022497 H          1 MOL1         0.0993
      12    H8      18.896848   20.489554   22.511069 H          1 MOL1         0.0993
      13    C4      20.586091   19.698975   21.384756 C.3        1 MOL1        -0.1338
      14    H9      20.608823   20.533903   20.670741 H          1 MOL1         0.0993
      15    H10     21.633756   19.424445   21.570150 H          1 MOL1         0.0993
      16    C5      19.840700   18.506425   20.739525 C.3        1 MOL1        -0.1313
      17    H11     18.780755   18.761860   20.601474 H          1 MOL1         0.0993
      18    H12     19.873955   17.633233   21.404484 H          1 MOL1         0.0993
      19    C6      20.455225   18.120882   19.376904 C.3        1 MOL1        -0.2328
      20    H13     21.508429   17.831217   19.486728 H          1 MOL1         0.1004
      21    H14     20.403011   18.957948   18.668535 H          1 MOL1         0.1004
      22    H15     19.916959   17.272352   18.934992 H          1 MOL1         0.1004
      23    C7      20.781975   18.389528   26.787824 C.3        1 MOL1        -0.0781
      24    H16     21.312213   17.889349   25.974979 H          1 MOL1         0.0978
      25    H17     21.319625   19.294099   27.080277 H          1 MOL1         0.0978
      26    H18     20.702212   17.715251   27.643440 H          1 MOL1         0.0978
@<TRIPOS>BOND
    1     1     2    1
    2     1     3    1
    3     1     4    1
    4     4     5    1
    5     4     6    1
    6     4     7    1
    7     7     8    1
    8     7     9    1
    9     7    10    1
   10    10    11    1
   11    10    12    1
   12    10    13    1
   13    13    14    1
   14    13    15    1
   15    13    16    1
   16    16    17    1
   17    16    18    1
   18    16    19    1
   19    19    20    1
   20    19    21    1
   21    19    22    1
   22     1    23    1
   23    23    24    1
   24    23    25    1
   25    23    26    1
@<TRIPOS>SUBSTRUCTURE
       1 MOL1            1 RESIDUE      1      MOL     
@<SCITEGIC>MOL_PROPERTY
VM2 Rank
SciTegic.value.IntegerValue
22

@<SCITEGIC>MOL_PROPERTY
Conf_Id
SciTegic.value.IntegerValue
550

@<SCITEGIC>MOL_PROPERTY
Probability
SciTegic.value.DoubleValue
1.37

@<SCITEGIC>MOL_PROPERTY
Sum Probability
SciTegic.value.DoubleValue
54.39

@<SCITEGIC>MOL_PROPERTY
Delta G
SciTegic.value.DoubleValue
0.980

@<SCITEGIC>MOL_PROPERTY
G
SciTegic.value.DoubleValue
76.446

@<SCITEGIC>MOL_PROPERTY
E
SciTegic.value.DoubleValue
44.014

@<SCITEGIC>MOL_PROPERTY
-TS
SciTegic.value.DoubleValue
32.433

@<SCITEGIC>MOL_PROPERTY
U+W
SciTegic.value.DoubleValue
22.552

@<SCITEGIC>MOL_PROPERTY
U
SciTegic.value.DoubleValue
71.722

@<SCITEGIC>MOL_PROPERTY
W
SciTegic.value.DoubleValue
-49.171

@<SCITEGIC>MOL_PROPERTY
W(PB)
SciTegic.value.DoubleValue
-51.486

@<SCITEGIC>MOL_PROPERTY
W(SA)
SciTegic.value.DoubleValue
2.316

@<SCITEGIC>MOL_PROPERTY
Valence
SciTegic.value.DoubleValue
2.539

@<SCITEGIC>MOL_PROPERTY
Coulomb
SciTegic.value.DoubleValue
68.643

@<SCITEGIC>MOL_PROPERTY
VdW
SciTegic.value.DoubleValue
0.540

@<SCITEGIC>MOL_PROPERTY
VdW6
SciTegic.value.DoubleValue
-6.633

@<SCITEGIC>MOL_PROPERTY
VdW12
SciTegic.value.DoubleValue
7.173

@<SCITEGIC>MOL_PROPERTY
Bond
SciTegic.value.DoubleValue
0.200

@<SCITEGIC>MOL_PROPERTY
Angle
SciTegic.value.DoubleValue
0.745

@<SCITEGIC>MOL_PROPERTY
Pdih
SciTegic.value.DoubleValue
1.594

@<SCITEGIC>MOL_PROPERTY
Idih
SciTegic.value.DoubleValue
0.000

@<SCITEGIC>MOL_PROPERTY
Tether
SciTegic.value.DoubleValue
0.000

@<TRIPOS>MOLECULE
guest-s12_vm2.mol2 : vm2 ligand conformer 23
          26          25           1
SMALL
USER_CHARGES
 
@<TRIPOS>ATOM
       1    N1      20.553795   18.887035   26.361318 N.4        1 MOL1        -0.4857
       2    H1      20.932858   19.396828   27.175198 H          1 MOL1         0.3650
       3    H2      21.265603   18.174067   26.139008 H          1 MOL1         0.3650
       4    C1      20.387304   19.845537   25.193897 C.3        1 MOL1         0.0209
       5    H3      21.325226   20.397178   25.090625 H          1 MOL1         0.0967
       6    H4      19.601296   20.559009   25.453772 H          1 MOL1         0.0967
       7    C2      20.055461   19.166189   23.849652 C.3        1 MOL1        -0.1378
       8    H5      20.825126   18.415759   23.630615 H          1 MOL1         0.0993
       9    H6      19.098123   18.635248   23.928905 H          1 MOL1         0.0993
      10    C3      19.977807   20.200792   22.702189 C.3        1 MOL1        -0.1338
      11    H7      20.951156   20.696957   22.583903 H          1 MOL1         0.0993
      12    H8      19.262919   20.987875   22.980000 H          1 MOL1         0.0993
      13    C4      19.536876   19.593169   21.347529 C.3        1 MOL1        -0.1338
      14    H9      18.554628   19.113930   21.460909 H          1 MOL1         0.0993
      15    H10     19.398259   20.411791   20.627749 H          1 MOL1         0.0993
      16    C5      20.548505   18.577776   20.764696 C.3        1 MOL1        -0.1313
      17    H11     20.643467   17.710844   21.431891 H          1 MOL1         0.0993
      18    H12     21.543245   19.040412   20.699530 H          1 MOL1         0.0993
      19    C6      20.120362   18.087000   19.365104 C.3        1 MOL1        -0.2328
      20    H13     19.141008   17.592382   19.402827 H          1 MOL1         0.1004
      21    H14     20.846669   17.365956   18.968121 H          1 MOL1         0.1004
      22    H15     20.054203   18.922608   18.656180 H          1 MOL1         0.1004
      23    C7      19.227889   18.232501   26.732614 C.3        1 MOL1        -0.0781
      24    H16     18.501296   19.009364   26.980391 H          1 MOL1         0.0978
      25    H17     18.866510   17.642439   25.888055 H          1 MOL1         0.0978
      26    H18     19.380510   17.581533   27.596349 H          1 MOL1         0.0978
@<TRIPOS>BOND
    1     1     2    1
    2     1     3    1
    3     1     4    1
    4     4     5    1
    5     4     6    1
    6     4     7    1
    7     7     8    1
    8     7     9    1
    9     7    10    1
   10    10    11    1
   11    10    12    1
   12    10    13    1
   13    13    14    1
   14    13    15    1
   15    13    16    1
   16    16    17    1
   17    16    18    1
   18    16    19    1
   19    19    20    1
   20    19    21    1
   21    19    22    1
   22     1    23    1
   23    23    24    1
   24    23    25    1
   25    23    26    1
@<TRIPOS>SUBSTRUCTURE
       1 MOL1            1 RESIDUE      1      MOL     
@<SCITEGIC>MOL_PROPERTY
VM2 Rank
SciTegic.value.IntegerValue
23

@<SCITEGIC>MOL_PROPERTY
Conf_Id
SciTegic.value.IntegerValue
965

@<SCITEGIC>MOL_PROPERTY
Probability
SciTegic.value.DoubleValue
1.33

@<SCITEGIC>MOL_PROPERTY
Sum Probability
SciTegic.value.DoubleValue
55.71

@<SCITEGIC>MOL_PROPERTY
Delta G
SciTegic.value.DoubleValue
1.002

@<SCITEGIC>MOL_PROPERTY
G
SciTegic.value.DoubleValue
76.468

@<SCITEGIC>MOL_PROPERTY
E
SciTegic.value.DoubleValue
44.035

@<SCITEGIC>MOL_PROPERTY
-TS
SciTegic.value.DoubleValue
32.433

@<SCITEGIC>MOL_PROPERTY
U+W
SciTegic.value.DoubleValue
22.573

@<SCITEGIC>MOL_PROPERTY
U
SciTegic.value.DoubleValue
71.722

@<SCITEGIC>MOL_PROPERTY
W
SciTegic.value.DoubleValue
-49.149

@<SCITEGIC>MOL_PROPERTY
W(PB)
SciTegic.value.DoubleValue
-51.447

@<SCITEGIC>MOL_PROPERTY
W(SA)
SciTegic.value.DoubleValue
2.298

@<SCITEGIC>MOL_PROPERTY
Valence
SciTegic.value.DoubleValue
2.539

@<SCITEGIC>MOL_PROPERTY
Coulomb
SciTegic.value.DoubleValue
68.643

@<SCITEGIC>MOL_PROPERTY
VdW
SciTegic.value.DoubleValue
0.540

@<SCITEGIC>MOL_PROPERTY
VdW6
SciTegic.value.DoubleValue
-6.633

@<SCITEGIC>MOL_PROPERTY
VdW12
SciTegic.value.DoubleValue
7.173

@<SCITEGIC>MOL_PROPERTY
Bond
SciTegic.value.DoubleValue
0.200

@<SCITEGIC>MOL_PROPERTY
Angle
SciTegic.value.DoubleValue
0.745

@<SCITEGIC>MOL_PROPERTY
Pdih
SciTegic.value.DoubleValue
1.594

@<SCITEGIC>MOL_PROPERTY
Idih
SciTegic.value.DoubleValue
0.000

@<SCITEGIC>MOL_PROPERTY
Tether
SciTegic.value.DoubleValue
0.000

@<TRIPOS>MOLECULE
guest-s12_vm2.mol2 : vm2 ligand conformer 24
          26          25           1
SMALL
USER_CHARGES
 
@<TRIPOS>ATOM
       1    N1      19.896372   18.782306   26.424841 N.4        1 MOL1        -0.4857
       2    H1      20.400151   18.918878   27.315642 H          1 MOL1         0.3650
       3    H2      19.689822   17.772128   26.388363 H          1 MOL1         0.3650
       4    C1      20.797143   19.176655   25.266207 C.3        1 MOL1         0.0209
       5    H3      21.759551   18.682176   25.420851 H          1 MOL1         0.0967
       6    H4      20.958677   20.256310   25.317651 H          1 MOL1         0.0967
       7    C2      20.255123   18.793208   23.874145 C.3        1 MOL1        -0.1378
       8    H5      20.049492   17.714980   23.848347 H          1 MOL1         0.0993
       9    H6      19.303014   19.308871   23.700729 H          1 MOL1         0.0993
      10    C3      21.263676   19.157778   22.759218 C.3        1 MOL1        -0.1338
      11    H7      22.233722   18.696271   22.991039 H          1 MOL1         0.0993
      12    H8      21.433034   20.243541   22.753566 H          1 MOL1         0.0993
      13    C4      20.824082   18.693552   21.348532 C.3        1 MOL1        -0.1338
      14    H9      21.646678   18.888000   20.646414 H          1 MOL1         0.0993
      15    H10     20.671566   17.605402   21.349545 H          1 MOL1         0.0993
      16    C5      19.546868   19.398895   20.833330 C.3        1 MOL1        -0.1313
      17    H11     19.679456   20.488796   20.881570 H          1 MOL1         0.0993
      18    H12     18.691586   19.153249   21.476653 H          1 MOL1         0.0993
      19    C6      19.215404   18.988045   19.382693 C.3        1 MOL1        -0.2328
      20    H13     18.306012   19.494713   19.034391 H          1 MOL1         0.1004
      21    H14     19.047631   17.905725   19.307579 H          1 MOL1         0.1004
      22    H15     20.032032   19.255583   18.699515 H          1 MOL1         0.1004
      23    C7      18.609332   19.599560   26.428034 C.3        1 MOL1        -0.0781
      24    H16     18.007817   19.314955   27.294218 H          1 MOL1         0.0978
      25    H17     18.858730   20.661334   26.485351 H          1 MOL1         0.0978
      26    H18     18.050656   19.398673   25.511768 H          1 MOL1         0.0978
@<TRIPOS>BOND
    1     1     2    1
    2     1     3    1
    3     1     4    1
    4     4     5    1
    5     4     6    1
    6     4     7    1
    7     7     8    1
    8     7     9    1
    9     7    10    1
   10    10    11    1
   11    10    12    1
   12    10    13    1
   13    13    14    1
   14    13    15    1
   15    13    16    1
   16    16    17    1
   17    16    18    1
   18    16    19    1
   19    19    20    1
   20    19    21    1
   21    19    22    1
   22     1    23    1
   23    23    24    1
   24    23    25    1
   25    23    26    1
@<TRIPOS>SUBSTRUCTURE
       1 MOL1            1 RESIDUE      1      MOL     
@<SCITEGIC>MOL_PROPERTY
VM2 Rank
SciTegic.value.IntegerValue
24

@<SCITEGIC>MOL_PROPERTY
Conf_Id
SciTegic.value.IntegerValue
816

@<SCITEGIC>MOL_PROPERTY
Probability
SciTegic.value.DoubleValue
1.28

@<SCITEGIC>MOL_PROPERTY
Sum Probability
SciTegic.value.DoubleValue
56.99

@<SCITEGIC>MOL_PROPERTY
Delta G
SciTegic.value.DoubleValue
1.024

@<SCITEGIC>MOL_PROPERTY
G
SciTegic.value.DoubleValue
76.490

@<SCITEGIC>MOL_PROPERTY
E
SciTegic.value.DoubleValue
44.058

@<SCITEGIC>MOL_PROPERTY
-TS
SciTegic.value.DoubleValue
32.431

@<SCITEGIC>MOL_PROPERTY
U+W
SciTegic.value.DoubleValue
22.596

@<SCITEGIC>MOL_PROPERTY
U
SciTegic.value.DoubleValue
71.707

@<SCITEGIC>MOL_PROPERTY
W
SciTegic.value.DoubleValue
-49.111

@<SCITEGIC>MOL_PROPERTY
W(PB)
SciTegic.value.DoubleValue
-51.412

@<SCITEGIC>MOL_PROPERTY
W(SA)
SciTegic.value.DoubleValue
2.301

@<SCITEGIC>MOL_PROPERTY
Valence
SciTegic.value.DoubleValue
2.540

@<SCITEGIC>MOL_PROPERTY
Coulomb
SciTegic.value.DoubleValue
68.632

@<SCITEGIC>MOL_PROPERTY
VdW
SciTegic.value.DoubleValue
0.535

@<SCITEGIC>MOL_PROPERTY
VdW6
SciTegic.value.DoubleValue
-6.648

@<SCITEGIC>MOL_PROPERTY
VdW12
SciTegic.value.DoubleValue
7.184

@<SCITEGIC>MOL_PROPERTY
Bond
SciTegic.value.DoubleValue
0.201

@<SCITEGIC>MOL_PROPERTY
Angle
SciTegic.value.DoubleValue
0.741

@<SCITEGIC>MOL_PROPERTY
Pdih
SciTegic.value.DoubleValue
1.598

@<SCITEGIC>MOL_PROPERTY
Idih
SciTegic.value.DoubleValue
0.000

@<SCITEGIC>MOL_PROPERTY
Tether
SciTegic.value.DoubleValue
0.000

@<TRIPOS>MOLECULE
guest-s12_vm2.mol2 : vm2 ligand conformer 25
          26          25           1
SMALL
USER_CHARGES
 
@<TRIPOS>ATOM
       1    N1      19.294126   18.852696   25.664574 N.4        1 MOL1        -0.4857
       2    H1      19.235422   17.822702   25.683985 H          1 MOL1         0.3650
       3    H2      18.631269   19.153861   24.934518 H          1 MOL1         0.3650
       4    C1      20.701070   19.288227   25.302858 C.3        1 MOL1         0.0209
       5    H3      21.366072   18.949397   26.101350 H          1 MOL1         0.0967
       6    H4      20.721468   20.380755   25.282622 H          1 MOL1         0.0967
       7    C2      21.200439   18.735030   23.953485 C.3        1 MOL1        -0.1378
       8    H5      22.254883   19.016945   23.832808 H          1 MOL1         0.0993
       9    H6      21.170360   17.637454   23.973117 H          1 MOL1         0.0993
      10    C3      20.386282   19.267203   22.750029 C.3        1 MOL1        -0.1338
      11    H7      20.400685   20.365971   22.756023 H          1 MOL1         0.0993
      12    H8      19.337938   18.960220   22.851971 H          1 MOL1         0.0993
      13    C4      20.949647   18.750892   21.404004 C.3        1 MOL1        -0.1338
      14    H9      22.016540   19.005814   21.339488 H          1 MOL1         0.0993
      15    H10     20.892206   17.653998   21.374318 H          1 MOL1         0.0993
      16    C5      20.229316   19.339545   20.166599 C.3        1 MOL1        -0.1313
      17    H11     20.756261   19.007266   19.261168 H          1 MOL1         0.0993
      18    H12     20.303565   20.435965   20.179691 H          1 MOL1         0.0993
      19    C6      18.745245   18.920146   20.060667 C.3        1 MOL1        -0.2328
      20    H13     18.641231   17.827486   20.077302 H          1 MOL1         0.1004
      21    H14     18.309657   19.283960   19.121072 H          1 MOL1         0.1004
      22    H15     18.148602   19.335487   20.882129 H          1 MOL1         0.1004
      23    C7      18.901877   19.436261   27.014784 C.3        1 MOL1        -0.0781
      24    H16     18.941024   20.526398   26.959923 H          1 MOL1         0.0978
      25    H17     17.887624   19.115479   27.262800 H          1 MOL1         0.0978
      26    H18     19.598360   19.078778   27.776396 H          1 MOL1         0.0978
@<TRIPOS>BOND
    1     1     2    1
    2     1     3    1
    3     1     4    1
    4     4     5    1
    5     4     6    1
    6     4     7    1
    7     7     8    1
    8     7     9    1
    9     7    10    1
   10    10    11    1
   11    10    12    1
   12    10    13    1
   13    13    14    1
   14    13    15    1
   15    13    16    1
   16    16    17    1
   17    16    18    1
   18    16    19    1
   19    19    20    1
   20    19    21    1
   21    19    22    1
   22     1    23    1
   23    23    24    1
   24    23    25    1
   25    23    26    1
@<TRIPOS>SUBSTRUCTURE
       1 MOL1            1 RESIDUE      1      MOL     
@<SCITEGIC>MOL_PROPERTY
VM2 Rank
SciTegic.value.IntegerValue
25

@<SCITEGIC>MOL_PROPERTY
Conf_Id
SciTegic.value.IntegerValue
784

@<SCITEGIC>MOL_PROPERTY
Probability
SciTegic.value.DoubleValue
1.18

@<SCITEGIC>MOL_PROPERTY
Sum Probability
SciTegic.value.DoubleValue
58.17

@<SCITEGIC>MOL_PROPERTY
Delta G
SciTegic.value.DoubleValue
1.073

@<SCITEGIC>MOL_PROPERTY
G
SciTegic.value.DoubleValue
76.539

@<SCITEGIC>MOL_PROPERTY
E
SciTegic.value.DoubleValue
44.179

@<SCITEGIC>MOL_PROPERTY
-TS
SciTegic.value.DoubleValue
32.360

@<SCITEGIC>MOL_PROPERTY
U+W
SciTegic.value.DoubleValue
22.718

@<SCITEGIC>MOL_PROPERTY
U
SciTegic.value.DoubleValue
71.970

@<SCITEGIC>MOL_PROPERTY
W
SciTegic.value.DoubleValue
-49.252

@<SCITEGIC>MOL_PROPERTY
W(PB)
SciTegic.value.DoubleValue
-51.559

@<SCITEGIC>MOL_PROPERTY
W(SA)
SciTegic.value.DoubleValue
2.307

@<SCITEGIC>MOL_PROPERTY
Valence
SciTegic.value.DoubleValue
2.341

@<SCITEGIC>MOL_PROPERTY
Coulomb
SciTegic.value.DoubleValue
69.301

@<SCITEGIC>MOL_PROPERTY
VdW
SciTegic.value.DoubleValue
0.327

@<SCITEGIC>MOL_PROPERTY
VdW6
SciTegic.value.DoubleValue
-6.486

@<SCITEGIC>MOL_PROPERTY
VdW12
SciTegic.value.DoubleValue
6.813

@<SCITEGIC>MOL_PROPERTY
Bond
SciTegic.value.DoubleValue
0.179

@<SCITEGIC>MOL_PROPERTY
Angle
SciTegic.value.DoubleValue
0.655

@<SCITEGIC>MOL_PROPERTY
Pdih
SciTegic.value.DoubleValue
1.507

@<SCITEGIC>MOL_PROPERTY
Idih
SciTegic.value.DoubleValue
0.000

@<SCITEGIC>MOL_PROPERTY
Tether
SciTegic.value.DoubleValue
0.000

@<TRIPOS>MOLECULE
guest-s12_vm2.mol2 : vm2 ligand conformer 26
          26          25           1
SMALL
USER_CHARGES
 
@<TRIPOS>ATOM
       1    N1      20.668714   18.993247   25.713322 N.4        1 MOL1        -0.4857
       2    H1      21.306544   19.427420   25.029415 H          1 MOL1         0.3650
       3    H2      20.932830   17.996248   25.744108 H          1 MOL1         0.3650
       4    C1      19.231671   19.138109   25.250789 C.3        1 MOL1         0.0209
       5    H3      18.992439   20.204103   25.221295 H          1 MOL1         0.0967
       6    H4      18.594553   18.666248   26.003152 H          1 MOL1         0.0967
       7    C2      18.950163   18.505031   23.873775 C.3        1 MOL1        -0.1378
       8    H5      19.199980   17.436070   23.903368 H          1 MOL1         0.0993
       9    H6      17.871598   18.568885   23.677528 H          1 MOL1         0.0993
      10    C3      19.722211   19.199315   22.726484 C.3        1 MOL1        -0.1338
      11    H7      20.801197   19.109851   22.903799 H          1 MOL1         0.0993
      12    H8      19.485634   20.272423   22.723527 H          1 MOL1         0.0993
      13    C4      19.370514   18.589369   21.348074 C.3        1 MOL1        -0.1338
      14    H9      19.650489   17.526986   21.330364 H          1 MOL1         0.0993
      15    H10     18.281303   18.623756   21.207207 H          1 MOL1         0.0993
      16    C5      20.041751   19.320324   20.159923 C.3        1 MOL1        -0.1313
      17    H11     19.746659   20.378976   20.159941 H          1 MOL1         0.0993
      18    H12     19.657528   18.894862   19.222244 H          1 MOL1         0.0993
      19    C6      21.583662   19.210363   20.161094 C.3        1 MOL1        -0.2328
      20    H13     21.904991   18.161196   20.192681 H          1 MOL1         0.1004
      21    H14     22.025051   19.731768   21.019349 H          1 MOL1         0.1004
      22    H15     22.001364   19.661523   19.251747 H          1 MOL1         0.1004
      23    C7      20.839315   19.634241   27.083539 C.3        1 MOL1        -0.0781
      24    H16     20.584501   20.694319   27.018371 H          1 MOL1         0.0978
      25    H17     20.177893   19.137797   27.796983 H          1 MOL1         0.0978
      26    H18     21.877561   19.523351   27.404272 H          1 MOL1         0.0978
@<TRIPOS>BOND
    1     1     2    1
    2     1     3    1
    3     1     4    1
    4     4     5    1
    5     4     6    1
    6     4     7    1
    7     7     8    1
    8     7     9    1
    9     7    10    1
   10    10    11    1
   11    10    12    1
   12    10    13    1
   13    13    14    1
   14    13    15    1
   15    13    16    1
   16    16    17    1
   17    16    18    1
   18    16    19    1
   19    19    20    1
   20    19    21    1
   21    19    22    1
   22     1    23    1
   23    23    24    1
   24    23    25    1
   25    23    26    1
@<TRIPOS>SUBSTRUCTURE
       1 MOL1            1 RESIDUE      1      MOL     
@<SCITEGIC>MOL_PROPERTY
VM2 Rank
SciTegic.value.IntegerValue
26

@<SCITEGIC>MOL_PROPERTY
Conf_Id
SciTegic.value.IntegerValue
747

@<SCITEGIC>MOL_PROPERTY
Probability
SciTegic.value.DoubleValue
1.16

@<SCITEGIC>MOL_PROPERTY
Sum Probability
SciTegic.value.DoubleValue
59.33

@<SCITEGIC>MOL_PROPERTY
Delta G
SciTegic.value.DoubleValue
1.080

@<SCITEGIC>MOL_PROPERTY
G
SciTegic.value.DoubleValue
76.546

@<SCITEGIC>MOL_PROPERTY
E
SciTegic.value.DoubleValue
44.186

@<SCITEGIC>MOL_PROPERTY
-TS
SciTegic.value.DoubleValue
32.360

@<SCITEGIC>MOL_PROPERTY
U+W
SciTegic.value.DoubleValue
22.724

@<SCITEGIC>MOL_PROPERTY
U
SciTegic.value.DoubleValue
71.970

@<SCITEGIC>MOL_PROPERTY
W
SciTegic.value.DoubleValue
-49.245

@<SCITEGIC>MOL_PROPERTY
W(PB)
SciTegic.value.DoubleValue
-51.545

@<SCITEGIC>MOL_PROPERTY
W(SA)
SciTegic.value.DoubleValue
2.299

@<SCITEGIC>MOL_PROPERTY
Valence
SciTegic.value.DoubleValue
2.341

@<SCITEGIC>MOL_PROPERTY
Coulomb
SciTegic.value.DoubleValue
69.301

@<SCITEGIC>MOL_PROPERTY
VdW
SciTegic.value.DoubleValue
0.327

@<SCITEGIC>MOL_PROPERTY
VdW6
SciTegic.value.DoubleValue
-6.486

@<SCITEGIC>MOL_PROPERTY
VdW12
SciTegic.value.DoubleValue
6.813

@<SCITEGIC>MOL_PROPERTY
Bond
SciTegic.value.DoubleValue
0.179

@<SCITEGIC>MOL_PROPERTY
Angle
SciTegic.value.DoubleValue
0.655

@<SCITEGIC>MOL_PROPERTY
Pdih
SciTegic.value.DoubleValue
1.507

@<SCITEGIC>MOL_PROPERTY
Idih
SciTegic.value.DoubleValue
0.000

@<SCITEGIC>MOL_PROPERTY
Tether
SciTegic.value.DoubleValue
0.000

@<TRIPOS>MOLECULE
guest-s12_vm2.mol2 : vm2 ligand conformer 27
          26          25           1
SMALL
USER_CHARGES
 
@<TRIPOS>ATOM
       1    N1      20.357525   19.588050   25.808007 N.4        1 MOL1        -0.4857
       2    H1      20.507007   20.349825   25.129409 H          1 MOL1         0.3650
       3    H2      21.292584   19.190734   25.988318 H          1 MOL1         0.3650
       4    C1      19.447625   18.530981   25.212545 C.3        1 MOL1         0.0209
       5    H3      18.473237   18.989989   25.027283 H          1 MOL1         0.0967
       6    H4      19.318264   17.746960   25.963012 H          1 MOL1         0.0967
       7    C2      19.983231   17.906771   23.908873 C.3        1 MOL1        -0.1378
       8    H5      20.964890   17.451806   24.096714 H          1 MOL1         0.0993
       9    H6      19.311130   17.090004   23.613715 H          1 MOL1         0.0993
      10    C3      20.083507   18.930130   22.752646 C.3        1 MOL1        -0.1338
      11    H7      20.785676   19.730502   23.021075 H          1 MOL1         0.0993
      12    H8      19.102455   19.400696   22.604756 H          1 MOL1         0.0993
      13    C4      20.551192   18.263144   21.436582 C.3        1 MOL1        -0.1338
      14    H9      21.496325   17.733132   21.618939 H          1 MOL1         0.0993
      15    H10     19.823622   17.499528   21.128558 H          1 MOL1         0.0993
      16    C5      20.766981   19.267354   20.278352 C.3        1 MOL1        -0.1313
      17    H11     21.194712   18.729475   19.420672 H          1 MOL1         0.0993
      18    H12     21.512975   20.019090   20.571932 H          1 MOL1         0.0993
      19    C6      19.468152   19.972965   19.825995 C.3        1 MOL1        -0.2328
      20    H13     18.695399   19.242076   19.554607 H          1 MOL1         0.1004
      21    H14     19.658838   20.601364   18.946404 H          1 MOL1         0.1004
      22    H15     19.066308   20.622437   20.613457 H          1 MOL1         0.1004
      23    C7      19.749787   20.130603   27.093998 C.3        1 MOL1        -0.0781
      24    H16     18.776328   20.573490   26.872261 H          1 MOL1         0.0978
      25    H17     19.630269   19.312477   27.807666 H          1 MOL1         0.0978
      26    H18     20.414267   20.890290   27.511689 H          1 MOL1         0.0978
@<TRIPOS>BOND
    1     1     2    1
    2     1     3    1
    3     1     4    1
    4     4     5    1
    5     4     6    1
    6     4     7    1
    7     7     8    1
    8     7     9    1
    9     7    10    1
   10    10    11    1
   11    10    12    1
   12    10    13    1
   13    13    14    1
   14    13    15    1
   15    13    16    1
   16    16    17    1
   17    16    18    1
   18    16    19    1
   19    19    20    1
   20    19    21    1
   21    19    22    1
   22     1    23    1
   23    23    24    1
   24    23    25    1
   25    23    26    1
@<TRIPOS>SUBSTRUCTURE
       1 MOL1            1 RESIDUE      1      MOL     
@<SCITEGIC>MOL_PROPERTY
VM2 Rank
SciTegic.value.IntegerValue
27

@<SCITEGIC>MOL_PROPERTY
Conf_Id
SciTegic.value.IntegerValue
977

@<SCITEGIC>MOL_PROPERTY
Probability
SciTegic.value.DoubleValue
1.16

@<SCITEGIC>MOL_PROPERTY
Sum Probability
SciTegic.value.DoubleValue
60.49

@<SCITEGIC>MOL_PROPERTY
Delta G
SciTegic.value.DoubleValue
1.080

@<SCITEGIC>MOL_PROPERTY
G
SciTegic.value.DoubleValue
76.546

@<SCITEGIC>MOL_PROPERTY
E
SciTegic.value.DoubleValue
44.180

@<SCITEGIC>MOL_PROPERTY
-TS
SciTegic.value.DoubleValue
32.366

@<SCITEGIC>MOL_PROPERTY
U+W
SciTegic.value.DoubleValue
22.718

@<SCITEGIC>MOL_PROPERTY
U
SciTegic.value.DoubleValue
71.833

@<SCITEGIC>MOL_PROPERTY
W
SciTegic.value.DoubleValue
-49.115

@<SCITEGIC>MOL_PROPERTY
W(PB)
SciTegic.value.DoubleValue
-51.436

@<SCITEGIC>MOL_PROPERTY
W(SA)
SciTegic.value.DoubleValue
2.321

@<SCITEGIC>MOL_PROPERTY
Valence
SciTegic.value.DoubleValue
2.344

@<SCITEGIC>MOL_PROPERTY
Coulomb
SciTegic.value.DoubleValue
69.159

@<SCITEGIC>MOL_PROPERTY
VdW
SciTegic.value.DoubleValue
0.330

@<SCITEGIC>MOL_PROPERTY
VdW6
SciTegic.value.DoubleValue
-6.475

@<SCITEGIC>MOL_PROPERTY
VdW12
SciTegic.value.DoubleValue
6.805

@<SCITEGIC>MOL_PROPERTY
Bond
SciTegic.value.DoubleValue
0.178

@<SCITEGIC>MOL_PROPERTY
Angle
SciTegic.value.DoubleValue
0.658

@<SCITEGIC>MOL_PROPERTY
Pdih
SciTegic.value.DoubleValue
1.508

@<SCITEGIC>MOL_PROPERTY
Idih
SciTegic.value.DoubleValue
0.000

@<SCITEGIC>MOL_PROPERTY
Tether
SciTegic.value.DoubleValue
0.000

@<TRIPOS>MOLECULE
guest-s12_vm2.mol2 : vm2 ligand conformer 28
          26          25           1
SMALL
USER_CHARGES
 
@<TRIPOS>ATOM
       1    N1      19.892364   18.939681   26.262077 N.4        1 MOL1        -0.4857
       2    H1      20.601678   18.294560   26.643542 H          1 MOL1         0.3650
       3    H2      18.987904   18.459598   26.389639 H          1 MOL1         0.3650
       4    C1      20.149470   19.188095   24.789466 C.3        1 MOL1         0.0209
       5    H3      21.117752   19.686454   24.697345 H          1 MOL1         0.0967
       6    H4      19.375527   19.868597   24.426624 H          1 MOL1         0.0967
       7    C2      20.147781   17.899209   23.945144 C.3        1 MOL1        -0.1378
       8    H5      20.900489   17.206669   24.344802 H          1 MOL1         0.0993
       9    H6      19.176068   17.396578   24.040413 H          1 MOL1         0.0993
      10    C3      20.451963   18.164809   22.451852 C.3        1 MOL1        -0.1338
      11    H7      20.515925   17.201169   21.927894 H          1 MOL1         0.0993
      12    H8      21.441298   18.633380   22.365058 H          1 MOL1         0.0993
      13    C4      19.381603   19.049692   21.763839 C.3        1 MOL1        -0.1338
      14    H9      18.387479   18.619411   21.948017 H          1 MOL1         0.0993
      15    H10     19.373600   20.051746   22.213288 H          1 MOL1         0.0993
      16    C5      19.584157   19.180851   20.234844 C.3        1 MOL1        -0.1313
      17    H11     18.733627   19.733998   19.812338 H          1 MOL1         0.0993
      18    H12     19.563892   18.185182   19.770028 H          1 MOL1         0.0993
      19    C6      20.892612   19.907974   19.849335 C.3        1 MOL1        -0.2328
      20    H13     21.777172   19.331729   20.147596 H          1 MOL1         0.1004
      21    H14     20.949719   20.896469   20.323261 H          1 MOL1         0.1004
      22    H15     20.945316   20.053637   18.762629 H          1 MOL1         0.1004
      23    C7      19.908050   20.259691   27.020443 C.3        1 MOL1        -0.0781
      24    H16     20.884901   20.732679   26.897959 H          1 MOL1         0.0978
      25    H17     19.128166   20.912250   26.621822 H          1 MOL1         0.0978
      26    H18     19.721879   20.066656   28.079321 H          1 MOL1         0.0978
@<TRIPOS>BOND
    1     1     2    1
    2     1     3    1
    3     1     4    1
    4     4     5    1
    5     4     6    1
    6     4     7    1
    7     7     8    1
    8     7     9    1
    9     7    10    1
   10    10    11    1
   11    10    12    1
   12    10    13    1
   13    13    14    1
   14    13    15    1
   15    13    16    1
   16    16    17    1
   17    16    18    1
   18    16    19    1
   19    19    20    1
   20    19    21    1
   21    19    22    1
   22     1    23    1
   23    23    24    1
   24    23    25    1
   25    23    26    1
@<TRIPOS>SUBSTRUCTURE
       1 MOL1            1 RESIDUE      1      MOL     
@<SCITEGIC>MOL_PROPERTY
VM2 Rank
SciTegic.value.IntegerValue
28

@<SCITEGIC>MOL_PROPERTY
Conf_Id
SciTegic.value.IntegerValue
250

@<SCITEGIC>MOL_PROPERTY
Probability
SciTegic.value.DoubleValue
1.14

@<SCITEGIC>MOL_PROPERTY
Sum Probability
SciTegic.value.DoubleValue
61.64

@<SCITEGIC>MOL_PROPERTY
Delta G
SciTegic.value.DoubleValue
1.089

@<SCITEGIC>MOL_PROPERTY
G
SciTegic.value.DoubleValue
76.555

@<SCITEGIC>MOL_PROPERTY
E
SciTegic.value.DoubleValue
44.177

@<SCITEGIC>MOL_PROPERTY
-TS
SciTegic.value.DoubleValue
32.379

@<SCITEGIC>MOL_PROPERTY
U+W
SciTegic.value.DoubleValue
22.715

@<SCITEGIC>MOL_PROPERTY
U
SciTegic.value.DoubleValue
71.734

@<SCITEGIC>MOL_PROPERTY
W
SciTegic.value.DoubleValue
-49.019

@<SCITEGIC>MOL_PROPERTY
W(PB)
SciTegic.value.DoubleValue
-51.333

@<SCITEGIC>MOL_PROPERTY
W(SA)
SciTegic.value.DoubleValue
2.314

@<SCITEGIC>MOL_PROPERTY
Valence
SciTegic.value.DoubleValue
2.508

@<SCITEGIC>MOL_PROPERTY
Coulomb
SciTegic.value.DoubleValue
68.926

@<SCITEGIC>MOL_PROPERTY
VdW
SciTegic.value.DoubleValue
0.300

@<SCITEGIC>MOL_PROPERTY
VdW6
SciTegic.value.DoubleValue
-6.530

@<SCITEGIC>MOL_PROPERTY
VdW12
SciTegic.value.DoubleValue
6.830

@<SCITEGIC>MOL_PROPERTY
Bond
SciTegic.value.DoubleValue
0.185

@<SCITEGIC>MOL_PROPERTY
Angle
SciTegic.value.DoubleValue
0.693

@<SCITEGIC>MOL_PROPERTY
Pdih
SciTegic.value.DoubleValue
1.630

@<SCITEGIC>MOL_PROPERTY
Idih
SciTegic.value.DoubleValue
0.000

@<SCITEGIC>MOL_PROPERTY
Tether
SciTegic.value.DoubleValue
0.000

@<TRIPOS>MOLECULE
guest-s12_vm2.mol2 : vm2 ligand conformer 29
          26          25           1
SMALL
USER_CHARGES
 
@<TRIPOS>ATOM
       1    N1      19.470997   19.497226   25.776424 N.4        1 MOL1        -0.4857
       2    H1      18.625582   18.917322   25.893432 H          1 MOL1         0.3650
       3    H2      19.218254   20.217787   25.083563 H          1 MOL1         0.3650
       4    C1      20.615825   18.650898   25.253937 C.3        1 MOL1         0.0209
       5    H3      20.848542   17.904091   26.017315 H          1 MOL1         0.0967
       6    H4      21.487421   19.299283   25.134115 H          1 MOL1         0.0967
       7    C2      20.310728   17.940316   23.920495 C.3        1 MOL1        -0.1378
       8    H5      21.153635   17.279144   23.679024 H          1 MOL1         0.0993
       9    H6      19.431184   17.294195   24.042412 H          1 MOL1         0.0993
      10    C3      20.085989   18.930273   22.752739 C.3        1 MOL1        -0.1338
      11    H7      20.958903   19.591367   22.670611 H          1 MOL1         0.0993
      12    H8      19.218819   19.569364   22.965509 H          1 MOL1         0.0993
      13    C4      19.856990   18.191712   21.411951 C.3        1 MOL1        -0.1338
      14    H9      20.744340   17.594183   21.161119 H          1 MOL1         0.0993
      15    H10     19.028917   17.479346   21.531424 H          1 MOL1         0.0993
      16    C5      19.523262   19.139490   20.234309 C.3        1 MOL1        -0.1313
      17    H11     18.621303   19.721692   20.469495 H          1 MOL1         0.0993
      18    H12     19.275020   18.532154   19.352604 H          1 MOL1         0.0993
      19    C6      20.679942   20.097717   19.869126 C.3        1 MOL1        -0.2328
      20    H13     21.602259   19.541208   19.657872 H          1 MOL1         0.1004
      21    H14     20.885084   20.809592   20.678161 H          1 MOL1         0.1004
      22    H15     20.427644   20.680586   18.973841 H          1 MOL1         0.1004
      23    C7      19.864266   20.142370   27.098019 C.3        1 MOL1        -0.0781
      24    H16     19.031968   20.748645   27.462481 H          1 MOL1         0.0978
      25    H17     20.096585   19.360300   27.824195 H          1 MOL1         0.0978
      26    H18     20.740938   20.774881   26.942086 H          1 MOL1         0.0978
@<TRIPOS>BOND
    1     1     2    1
    2     1     3    1
    3     1     4    1
    4     4     5    1
    5     4     6    1
    6     4     7    1
    7     7     8    1
    8     7     9    1
    9     7    10    1
   10    10    11    1
   11    10    12    1
   12    10    13    1
   13    13    14    1
   14    13    15    1
   15    13    16    1
   16    16    17    1
   17    16    18    1
   18    16    19    1
   19    19    20    1
   20    19    21    1
   21    19    22    1
   22     1    23    1
   23    23    24    1
   24    23    25    1
   25    23    26    1
@<TRIPOS>SUBSTRUCTURE
       1 MOL1            1 RESIDUE      1      MOL     
@<SCITEGIC>MOL_PROPERTY
VM2 Rank
SciTegic.value.IntegerValue
29

@<SCITEGIC>MOL_PROPERTY
Conf_Id
SciTegic.value.IntegerValue
1069

@<SCITEGIC>MOL_PROPERTY
Probability
SciTegic.value.DoubleValue
1.11

@<SCITEGIC>MOL_PROPERTY
Sum Probability
SciTegic.value.DoubleValue
62.74

@<SCITEGIC>MOL_PROPERTY
Delta G
SciTegic.value.DoubleValue
1.109

@<SCITEGIC>MOL_PROPERTY
G
SciTegic.value.DoubleValue
76.575

@<SCITEGIC>MOL_PROPERTY
E
SciTegic.value.DoubleValue
44.209

@<SCITEGIC>MOL_PROPERTY
-TS
SciTegic.value.DoubleValue
32.367

@<SCITEGIC>MOL_PROPERTY
U+W
SciTegic.value.DoubleValue
22.747

@<SCITEGIC>MOL_PROPERTY
U
SciTegic.value.DoubleValue
71.833

@<SCITEGIC>MOL_PROPERTY
W
SciTegic.value.DoubleValue
-49.086

@<SCITEGIC>MOL_PROPERTY
W(PB)
SciTegic.value.DoubleValue
-51.406

@<SCITEGIC>MOL_PROPERTY
W(SA)
SciTegic.value.DoubleValue
2.321

@<SCITEGIC>MOL_PROPERTY
Valence
SciTegic.value.DoubleValue
2.344

@<SCITEGIC>MOL_PROPERTY
Coulomb
SciTegic.value.DoubleValue
69.159

@<SCITEGIC>MOL_PROPERTY
VdW
SciTegic.value.DoubleValue
0.330

@<SCITEGIC>MOL_PROPERTY
VdW6
SciTegic.value.DoubleValue
-6.475

@<SCITEGIC>MOL_PROPERTY
VdW12
SciTegic.value.DoubleValue
6.805

@<SCITEGIC>MOL_PROPERTY
Bond
SciTegic.value.DoubleValue
0.178

@<SCITEGIC>MOL_PROPERTY
Angle
SciTegic.value.DoubleValue
0.658

@<SCITEGIC>MOL_PROPERTY
Pdih
SciTegic.value.DoubleValue
1.508

@<SCITEGIC>MOL_PROPERTY
Idih
SciTegic.value.DoubleValue
0.000

@<SCITEGIC>MOL_PROPERTY
Tether
SciTegic.value.DoubleValue
0.000

@<TRIPOS>MOLECULE
guest-s12_vm2.mol2 : vm2 ligand conformer 30
          26          25           1
SMALL
USER_CHARGES
 
@<TRIPOS>ATOM
       1    N1      20.425614   19.610699   25.809317 N.4        1 MOL1        -0.4857
       2    H1      20.077050   20.465914   25.350714 H          1 MOL1         0.3650
       3    H2      21.436944   19.580774   25.607001 H          1 MOL1         0.3650
       4    C1      19.740229   18.390540   25.225144 C.3        1 MOL1         0.0209
       5    H3      18.673366   18.462493   25.451106 H          1 MOL1         0.0967
       6    H4      20.138982   17.511218   25.737398 H          1 MOL1         0.0967
       7    C2      19.938818   18.230590   23.705042 C.3        1 MOL1        -0.1378
       8    H5      21.012193   18.157584   23.489282 H          1 MOL1         0.0993
       9    H6      19.489608   17.277813   23.394913 H          1 MOL1         0.0993
      10    C3      19.299347   19.387234   22.896473 C.3        1 MOL1        -0.1338
      11    H7      19.801645   20.335200   23.131186 H          1 MOL1         0.0993
      12    H8      18.252714   19.505448   23.210036 H          1 MOL1         0.0993
      13    C4      19.329617   19.159474   21.364996 C.3        1 MOL1        -0.1338
      14    H9      18.807245   18.224123   21.120893 H          1 MOL1         0.0993
      15    H10     18.759562   19.965006   20.881673 H          1 MOL1         0.0993
      16    C5      20.758442   19.129087   20.772065 C.3        1 MOL1        -0.1313
      17    H11     21.323152   18.283130   21.185901 H          1 MOL1         0.0993
      18    H12     21.298414   20.042789   21.057272 H          1 MOL1         0.0993
      19    C6      20.733861   19.009298   19.233226 C.3        1 MOL1        -0.2328
      20    H13     20.211644   19.861223   18.778582 H          1 MOL1         0.1004
      21    H14     20.225988   18.088793   18.917094 H          1 MOL1         0.1004
      22    H15     21.754505   18.986293   18.829774 H          1 MOL1         0.1004
      23    C7      20.182071   19.673079   27.310736 C.3        1 MOL1        -0.0781
      24    H16     19.107872   19.736070   27.498000 H          1 MOL1         0.0978
      25    H17     20.587014   18.772659   27.777853 H          1 MOL1         0.0978
      26    H18     20.680020   20.555791   27.718149 H          1 MOL1         0.0978
@<TRIPOS>BOND
    1     1     2    1
    2     1     3    1
    3     1     4    1
    4     4     5    1
    5     4     6    1
    6     4     7    1
    7     7     8    1
    8     7     9    1
    9     7    10    1
   10    10    11    1
   11    10    12    1
   12    10    13    1
   13    13    14    1
   14    13    15    1
   15    13    16    1
   16    16    17    1
   17    16    18    1
   18    16    19    1
   19    19    20    1
   20    19    21    1
   21    19    22    1
   22     1    23    1
   23    23    24    1
   24    23    25    1
   25    23    26    1
@<TRIPOS>SUBSTRUCTURE
       1 MOL1            1 RESIDUE      1      MOL     
@<SCITEGIC>MOL_PROPERTY
VM2 Rank
SciTegic.value.IntegerValue
30

@<SCITEGIC>MOL_PROPERTY
Conf_Id
SciTegic.value.IntegerValue
709

@<SCITEGIC>MOL_PROPERTY
Probability
SciTegic.value.DoubleValue
1.09

@<SCITEGIC>MOL_PROPERTY
Sum Probability
SciTegic.value.DoubleValue
63.83

@<SCITEGIC>MOL_PROPERTY
Delta G
SciTegic.value.DoubleValue
1.119

@<SCITEGIC>MOL_PROPERTY
G
SciTegic.value.DoubleValue
76.585

@<SCITEGIC>MOL_PROPERTY
E
SciTegic.value.DoubleValue
44.219

@<SCITEGIC>MOL_PROPERTY
-TS
SciTegic.value.DoubleValue
32.365

@<SCITEGIC>MOL_PROPERTY
U+W
SciTegic.value.DoubleValue
22.758

@<SCITEGIC>MOL_PROPERTY
U
SciTegic.value.DoubleValue
71.994

@<SCITEGIC>MOL_PROPERTY
W
SciTegic.value.DoubleValue
-49.236

@<SCITEGIC>MOL_PROPERTY
W(PB)
SciTegic.value.DoubleValue
-51.536

@<SCITEGIC>MOL_PROPERTY
W(SA)
SciTegic.value.DoubleValue
2.300

@<SCITEGIC>MOL_PROPERTY
Valence
SciTegic.value.DoubleValue
2.376

@<SCITEGIC>MOL_PROPERTY
Coulomb
SciTegic.value.DoubleValue
69.315

@<SCITEGIC>MOL_PROPERTY
VdW
SciTegic.value.DoubleValue
0.303

@<SCITEGIC>MOL_PROPERTY
VdW6
SciTegic.value.DoubleValue
-6.507

@<SCITEGIC>MOL_PROPERTY
VdW12
SciTegic.value.DoubleValue
6.810

@<SCITEGIC>MOL_PROPERTY
Bond
SciTegic.value.DoubleValue
0.182

@<SCITEGIC>MOL_PROPERTY
Angle
SciTegic.value.DoubleValue
0.660

@<SCITEGIC>MOL_PROPERTY
Pdih
SciTegic.value.DoubleValue
1.534

@<SCITEGIC>MOL_PROPERTY
Idih
SciTegic.value.DoubleValue
0.000

@<SCITEGIC>MOL_PROPERTY
Tether
SciTegic.value.DoubleValue
0.000

@<TRIPOS>MOLECULE
guest-s12_vm2.mol2 : vm2 ligand conformer 31
          26          25           1
SMALL
USER_CHARGES
 
@<TRIPOS>ATOM
       1    N1      20.025092   18.953396   26.266741 N.4        1 MOL1        -0.4857
       2    H1      20.997000   18.666045   26.460707 H          1 MOL1         0.3650
       3    H2      19.436622   18.174994   26.602323 H          1 MOL1         0.3650
       4    C1      19.826537   19.154932   24.778001 C.3        1 MOL1         0.0209
       5    H3      20.469606   19.980991   24.465254 H          1 MOL1         0.0967
       6    H4      18.786093   19.446927   24.614797 H          1 MOL1         0.0967
       7    C2      20.148951   17.899298   23.945213 C.3        1 MOL1        -0.1378
       8    H5      21.193364   17.603725   24.111889 H          1 MOL1         0.0993
       9    H6      19.526406   17.065541   24.296201 H          1 MOL1         0.0993
      10    C3      19.902465   18.108298   22.432419 C.3        1 MOL1        -0.1338
      11    H7      18.847221   18.367143   22.273245 H          1 MOL1         0.0993
      12    H8      20.072034   17.155453   21.912270 H          1 MOL1         0.0993
      13    C4      20.816657   19.196671   21.814571 C.3        1 MOL1        -0.1338
      14    H9      20.590044   20.176293   22.256351 H          1 MOL1         0.0993
      15    H10     21.862013   18.975442   22.070768 H          1 MOL1         0.0993
      16    C5      20.698973   19.295065   20.274271 C.3        1 MOL1        -0.1313
      17    H11     20.952734   18.327458   19.819120 H          1 MOL1         0.0993
      18    H12     21.447314   20.011917   19.908222 H          1 MOL1         0.0993
      19    C6      19.300595   19.745054   19.793200 C.3        1 MOL1        -0.2328
      20    H13     19.011728   20.698182   20.254818 H          1 MOL1         0.1004
      21    H14     18.532327   18.999651   20.033205 H          1 MOL1         0.1004
      22    H15     19.295447   19.884688   18.704439 H          1 MOL1         0.1004
      23    C7      19.688731   20.237285   27.012583 C.3        1 MOL1        -0.0781
      24    H16     19.835714   20.078531   28.083254 H          1 MOL1         0.0978
      25    H17     20.345799   21.037426   26.664746 H          1 MOL1         0.0978
      26    H18     18.647198   20.502939   26.818685 H          1 MOL1         0.0978
@<TRIPOS>BOND
    1     1     2    1
    2     1     3    1
    3     1     4    1
    4     4     5    1
    5     4     6    1
    6     4     7    1
    7     7     8    1
    8     7     9    1
    9     7    10    1
   10    10    11    1
   11    10    12    1
   12    10    13    1
   13    13    14    1
   14    13    15    1
   15    13    16    1
   16    16    17    1
   17    16    18    1
   18    16    19    1
   19    19    20    1
   20    19    21    1
   21    19    22    1
   22     1    23    1
   23    23    24    1
   24    23    25    1
   25    23    26    1
@<TRIPOS>SUBSTRUCTURE
       1 MOL1            1 RESIDUE      1      MOL     
@<SCITEGIC>MOL_PROPERTY
VM2 Rank
SciTegic.value.IntegerValue
31

@<SCITEGIC>MOL_PROPERTY
Conf_Id
SciTegic.value.IntegerValue
808

@<SCITEGIC>MOL_PROPERTY
Probability
SciTegic.value.DoubleValue
1.08

@<SCITEGIC>MOL_PROPERTY
Sum Probability
SciTegic.value.DoubleValue
64.92

@<SCITEGIC>MOL_PROPERTY
Delta G
SciTegic.value.DoubleValue
1.121

@<SCITEGIC>MOL_PROPERTY
G
SciTegic.value.DoubleValue
76.587

@<SCITEGIC>MOL_PROPERTY
E
SciTegic.value.DoubleValue
44.209

@<SCITEGIC>MOL_PROPERTY
-TS
SciTegic.value.DoubleValue
32.379

@<SCITEGIC>MOL_PROPERTY
U+W
SciTegic.value.DoubleValue
22.747

@<SCITEGIC>MOL_PROPERTY
U
SciTegic.value.DoubleValue
71.734

@<SCITEGIC>MOL_PROPERTY
W
SciTegic.value.DoubleValue
-48.987

@<SCITEGIC>MOL_PROPERTY
W(PB)
SciTegic.value.DoubleValue
-51.298

@<SCITEGIC>MOL_PROPERTY
W(SA)
SciTegic.value.DoubleValue
2.311

@<SCITEGIC>MOL_PROPERTY
Valence
SciTegic.value.DoubleValue
2.508

@<SCITEGIC>MOL_PROPERTY
Coulomb
SciTegic.value.DoubleValue
68.926

@<SCITEGIC>MOL_PROPERTY
VdW
SciTegic.value.DoubleValue
0.300

@<SCITEGIC>MOL_PROPERTY
VdW6
SciTegic.value.DoubleValue
-6.530

@<SCITEGIC>MOL_PROPERTY
VdW12
SciTegic.value.DoubleValue
6.830

@<SCITEGIC>MOL_PROPERTY
Bond
SciTegic.value.DoubleValue
0.185

@<SCITEGIC>MOL_PROPERTY
Angle
SciTegic.value.DoubleValue
0.693

@<SCITEGIC>MOL_PROPERTY
Pdih
SciTegic.value.DoubleValue
1.631

@<SCITEGIC>MOL_PROPERTY
Idih
SciTegic.value.DoubleValue
0.000

@<SCITEGIC>MOL_PROPERTY
Tether
SciTegic.value.DoubleValue
0.000

@<TRIPOS>MOLECULE
guest-s12_vm2.mol2 : vm2 ligand conformer 32
          26          25           1
SMALL
USER_CHARGES
 
@<TRIPOS>ATOM
       1    N1      19.787250   19.695679   25.555052 N.4        1 MOL1        -0.4857
       2    H1      18.877288   19.612055   26.034225 H          1 MOL1         0.3650
       3    H2      19.626754   20.339917   24.766192 H          1 MOL1         0.3650
       4    C1      20.229571   18.341577   25.035930 C.3        1 MOL1         0.0209
       5    H3      20.376103   17.687658   25.899351 H          1 MOL1         0.0967
       6    H4      21.194697   18.469911   24.540231 H          1 MOL1         0.0967
       7    C2      19.226341   17.688108   24.062982 C.3        1 MOL1        -0.1378
       8    H5      19.604582   16.696142   23.782319 H          1 MOL1         0.0993
       9    H6      18.277012   17.515810   24.587286 H          1 MOL1         0.0993
      10    C3      18.960708   18.514996   22.779635 C.3        1 MOL1        -0.1338
      11    H7      18.489689   19.471838   23.041654 H          1 MOL1         0.0993
      12    H8      18.229285   17.975308   22.162193 H          1 MOL1         0.0993
      13    C4      20.238166   18.771725   21.944184 C.3        1 MOL1        -0.1338
      14    H9      20.962128   19.352072   22.531615 H          1 MOL1         0.0993
      15    H10     20.718693   17.813005   21.704659 H          1 MOL1         0.0993
      16    C5      19.925258   19.530766   20.635399 C.3        1 MOL1        -0.1313
      17    H11     19.442427   20.490115   20.868778 H          1 MOL1         0.0993
      18    H12     19.208980   18.953985   20.033522 H          1 MOL1         0.0993
      19    C6      21.200473   19.788524   19.804593 C.3        1 MOL1        -0.2328
      20    H13     21.688063   18.845045   19.526562 H          1 MOL1         0.1004
      21    H14     21.923028   20.393821   20.367374 H          1 MOL1         0.1004
      22    H15     20.958114   20.327515   18.879516 H          1 MOL1         0.1004
      23    C7      20.840233   20.258624   26.499225 C.3        1 MOL1        -0.0781
      24    H16     20.970487   19.574424   27.340549 H          1 MOL1         0.0978
      25    H17     21.784278   20.367133   25.960792 H          1 MOL1         0.0978
      26    H18     20.509537   21.233494   26.864428 H          1 MOL1         0.0978
@<TRIPOS>BOND
    1     1     2    1
    2     1     3    1
    3     1     4    1
    4     4     5    1
    5     4     6    1
    6     4     7    1
    7     7     8    1
    8     7     9    1
    9     7    10    1
   10    10    11    1
   11    10    12    1
   12    10    13    1
   13    13    14    1
   14    13    15    1
   15    13    16    1
   16    16    17    1
   17    16    18    1
   18    16    19    1
   19    19    20    1
   20    19    21    1
   21    19    22    1
   22     1    23    1
   23    23    24    1
   24    23    25    1
   25    23    26    1
@<TRIPOS>SUBSTRUCTURE
       1 MOL1            1 RESIDUE      1      MOL     
@<SCITEGIC>MOL_PROPERTY
VM2 Rank
SciTegic.value.IntegerValue
32

@<SCITEGIC>MOL_PROPERTY
Conf_Id
SciTegic.value.IntegerValue
717

@<SCITEGIC>MOL_PROPERTY
Probability
SciTegic.value.DoubleValue
1.04

@<SCITEGIC>MOL_PROPERTY
Sum Probability
SciTegic.value.DoubleValue
65.95

@<SCITEGIC>MOL_PROPERTY
Delta G
SciTegic.value.DoubleValue
1.148

@<SCITEGIC>MOL_PROPERTY
G
SciTegic.value.DoubleValue
76.614

@<SCITEGIC>MOL_PROPERTY
E
SciTegic.value.DoubleValue
44.171

@<SCITEGIC>MOL_PROPERTY
-TS
SciTegic.value.DoubleValue
32.443

@<SCITEGIC>MOL_PROPERTY
U+W
SciTegic.value.DoubleValue
22.710

@<SCITEGIC>MOL_PROPERTY
U
SciTegic.value.DoubleValue
71.905

@<SCITEGIC>MOL_PROPERTY
W
SciTegic.value.DoubleValue
-49.195

@<SCITEGIC>MOL_PROPERTY
W(PB)
SciTegic.value.DoubleValue
-51.490

@<SCITEGIC>MOL_PROPERTY
W(SA)
SciTegic.value.DoubleValue
2.294

@<SCITEGIC>MOL_PROPERTY
Valence
SciTegic.value.DoubleValue
2.125

@<SCITEGIC>MOL_PROPERTY
Coulomb
SciTegic.value.DoubleValue
69.686

@<SCITEGIC>MOL_PROPERTY
VdW
SciTegic.value.DoubleValue
0.093

@<SCITEGIC>MOL_PROPERTY
VdW6
SciTegic.value.DoubleValue
-6.766

@<SCITEGIC>MOL_PROPERTY
VdW12
SciTegic.value.DoubleValue
6.859

@<SCITEGIC>MOL_PROPERTY
Bond
SciTegic.value.DoubleValue
0.169

@<SCITEGIC>MOL_PROPERTY
Angle
SciTegic.value.DoubleValue
0.621

@<SCITEGIC>MOL_PROPERTY
Pdih
SciTegic.value.DoubleValue
1.336

@<SCITEGIC>MOL_PROPERTY
Idih
SciTegic.value.DoubleValue
0.000

@<SCITEGIC>MOL_PROPERTY
Tether
SciTegic.value.DoubleValue
0.000

@<TRIPOS>MOLECULE
guest-s12_vm2.mol2 : vm2 ligand conformer 33
          26          25           1
SMALL
USER_CHARGES
 
@<TRIPOS>ATOM
       1    N1      20.424428   18.802635   25.941178 N.4        1 MOL1        -0.4857
       2    H1      21.190033   18.142376   25.734951 H          1 MOL1         0.3650
       3    H2      19.748449   18.270127   26.510642 H          1 MOL1         0.3650
       4    C1      19.772697   19.266906   24.654357 C.3        1 MOL1         0.0209
       5    H3      20.521384   19.820860   24.082910 H          1 MOL1         0.0967
       6    H4      18.962278   19.951725   24.916325 H          1 MOL1         0.0967
       7    C2      19.218495   18.110703   23.800206 C.3        1 MOL1        -0.1378
       8    H5      20.029243   17.415710   23.547189 H          1 MOL1         0.0993
       9    H6      18.497264   17.536879   24.397182 H          1 MOL1         0.0993
      10    C3      18.518179   18.602276   22.508696 C.3        1 MOL1        -0.1338
      11    H7      17.626866   19.181865   22.786451 H          1 MOL1         0.0993
      12    H8      18.149078   17.731383   21.949573 H          1 MOL1         0.0993
      13    C4      19.402722   19.468509   21.574558 C.3        1 MOL1        -0.1338
      14    H9      18.796385   19.775093   20.710985 H          1 MOL1         0.0993
      15    H10     19.691490   20.397254   22.084745 H          1 MOL1         0.0993
      16    C5      20.667993   18.737909   21.065769 C.3        1 MOL1        -0.1313
      17    H11     20.382832   17.788185   20.591985 H          1 MOL1         0.0993
      18    H12     21.326440   18.488614   21.908543 H          1 MOL1         0.0993
      19    C6      21.454664   19.598675   20.054344 C.3        1 MOL1        -0.2328
      20    H13     20.841104   19.835679   19.175393 H          1 MOL1         0.1004
      21    H14     22.349632   19.066858   19.706195 H          1 MOL1         0.1004
      22    H15     21.779962   20.543469   20.509021 H          1 MOL1         0.1004
      23    C7      20.948823   20.002388   26.717892 C.3        1 MOL1        -0.0781
      24    H16     20.116623   20.669492   26.953200 H          1 MOL1         0.0978
      25    H17     21.415420   19.654521   27.642235 H          1 MOL1         0.0978
      26    H18     21.685757   20.530424   26.108749 H          1 MOL1         0.0978
@<TRIPOS>BOND
    1     1     2    1
    2     1     3    1
    3     1     4    1
    4     4     5    1
    5     4     6    1
    6     4     7    1
    7     7     8    1
    8     7     9    1
    9     7    10    1
   10    10    11    1
   11    10    12    1
   12    10    13    1
   13    13    14    1
   14    13    15    1
   15    13    16    1
   16    16    17    1
   17    16    18    1
   18    16    19    1
   19    19    20    1
   20    19    21    1
   21    19    22    1
   22     1    23    1
   23    23    24    1
   24    23    25    1
   25    23    26    1
@<TRIPOS>SUBSTRUCTURE
       1 MOL1            1 RESIDUE      1      MOL     
@<SCITEGIC>MOL_PROPERTY
VM2 Rank
SciTegic.value.IntegerValue
33

@<SCITEGIC>MOL_PROPERTY
Conf_Id
SciTegic.value.IntegerValue
165

@<SCITEGIC>MOL_PROPERTY
Probability
SciTegic.value.DoubleValue
1.03

@<SCITEGIC>MOL_PROPERTY
Sum Probability
SciTegic.value.DoubleValue
66.98

@<SCITEGIC>MOL_PROPERTY
Delta G
SciTegic.value.DoubleValue
1.154

@<SCITEGIC>MOL_PROPERTY
G
SciTegic.value.DoubleValue
76.620

@<SCITEGIC>MOL_PROPERTY
E
SciTegic.value.DoubleValue
44.123

@<SCITEGIC>MOL_PROPERTY
-TS
SciTegic.value.DoubleValue
32.497

@<SCITEGIC>MOL_PROPERTY
U+W
SciTegic.value.DoubleValue
22.661

@<SCITEGIC>MOL_PROPERTY
U
SciTegic.value.DoubleValue
72.035

@<SCITEGIC>MOL_PROPERTY
W
SciTegic.value.DoubleValue
-49.374

@<SCITEGIC>MOL_PROPERTY
W(PB)
SciTegic.value.DoubleValue
-51.684

@<SCITEGIC>MOL_PROPERTY
W(SA)
SciTegic.value.DoubleValue
2.310

@<SCITEGIC>MOL_PROPERTY
Valence
SciTegic.value.DoubleValue
2.479

@<SCITEGIC>MOL_PROPERTY
Coulomb
SciTegic.value.DoubleValue
69.414

@<SCITEGIC>MOL_PROPERTY
VdW
SciTegic.value.DoubleValue
0.143

@<SCITEGIC>MOL_PROPERTY
VdW6
SciTegic.value.DoubleValue
-6.883

@<SCITEGIC>MOL_PROPERTY
VdW12
SciTegic.value.DoubleValue
7.025

@<SCITEGIC>MOL_PROPERTY
Bond
SciTegic.value.DoubleValue
0.193

@<SCITEGIC>MOL_PROPERTY
Angle
SciTegic.value.DoubleValue
0.854

@<SCITEGIC>MOL_PROPERTY
Pdih
SciTegic.value.DoubleValue
1.432

@<SCITEGIC>MOL_PROPERTY
Idih
SciTegic.value.DoubleValue
0.000

@<SCITEGIC>MOL_PROPERTY
Tether
SciTegic.value.DoubleValue
0.000

@<TRIPOS>MOLECULE
guest-s12_vm2.mol2 : vm2 ligand conformer 34
          26          25           1
SMALL
USER_CHARGES
 
@<TRIPOS>ATOM
       1    N1      20.023707   19.719875   25.563730 N.4        1 MOL1        -0.4857
       2    H1      20.105034   20.389111   24.783593 H          1 MOL1         0.3650
       3    H2      20.895719   19.819249   26.106274 H          1 MOL1         0.3650
       4    C1      19.903210   18.308041   25.024348 C.3        1 MOL1         0.0209
       5    H3      18.969290   18.241298   24.461325 H          1 MOL1         0.0967
       6    H4      19.832473   17.631607   25.879924 H          1 MOL1         0.0967
       7    C2      21.083922   17.879250   24.128705 C.3        1 MOL1        -0.1378
       8    H5      22.009385   17.899721   24.719389 H          1 MOL1         0.0993
       9    H6      20.935823   16.833175   23.829327 H          1 MOL1         0.0993
      10    C3      21.265038   18.752176   22.861236 C.3        1 MOL1        -0.1338
      11    H7      22.132353   18.377031   22.300425 H          1 MOL1         0.0993
      12    H8      21.512050   19.782896   23.148740 H          1 MOL1         0.0993
      13    C4      20.023775   18.749743   21.936547 C.3        1 MOL1        -0.1338
      14    H9      19.766221   17.715077   21.670931 H          1 MOL1         0.0993
      15    H10     19.157606   19.166528   22.467623 H          1 MOL1         0.0993
      16    C5      20.266654   19.565880   20.647399 C.3        1 MOL1        -0.1313
      17    H11     21.125618   19.151134   20.101366 H          1 MOL1         0.0993
      18    H12     20.526736   20.601685   20.907026 H          1 MOL1         0.0993
      19    C6      19.027051   19.564814   19.727488 C.3        1 MOL1        -0.2328
      20    H13     18.762197   18.543888   19.422917 H          1 MOL1         0.1004
      21    H14     19.218924   20.148370   18.817727 H          1 MOL1         0.1004
      22    H15     18.158903   20.006522   20.233854 H          1 MOL1         0.1004
      23    C7      18.814644   20.050221   26.427548 C.3        1 MOL1        -0.0781
      24    H16     18.913981   21.069171   26.808304 H          1 MOL1         0.0978
      25    H17     17.908465   19.968811   25.823295 H          1 MOL1         0.0978
      26    H18     18.767223   19.347555   27.262371 H          1 MOL1         0.0978
@<TRIPOS>BOND
    1     1     2    1
    2     1     3    1
    3     1     4    1
    4     4     5    1
    5     4     6    1
    6     4     7    1
    7     7     8    1
    8     7     9    1
    9     7    10    1
   10    10    11    1
   11    10    12    1
   12    10    13    1
   13    13    14    1
   14    13    15    1
   15    13    16    1
   16    16    17    1
   17    16    18    1
   18    16    19    1
   19    19    20    1
   20    19    21    1
   21    19    22    1
   22     1    23    1
   23    23    24    1
   24    23    25    1
   25    23    26    1
@<TRIPOS>SUBSTRUCTURE
       1 MOL1            1 RESIDUE      1      MOL     
@<SCITEGIC>MOL_PROPERTY
VM2 Rank
SciTegic.value.IntegerValue
34

@<SCITEGIC>MOL_PROPERTY
Conf_Id
SciTegic.value.IntegerValue
478

@<SCITEGIC>MOL_PROPERTY
Probability
SciTegic.value.DoubleValue
1.01

@<SCITEGIC>MOL_PROPERTY
Sum Probability
SciTegic.value.DoubleValue
67.99

@<SCITEGIC>MOL_PROPERTY
Delta G
SciTegic.value.DoubleValue
1.162

@<SCITEGIC>MOL_PROPERTY
G
SciTegic.value.DoubleValue
76.628

@<SCITEGIC>MOL_PROPERTY
E
SciTegic.value.DoubleValue
44.185

@<SCITEGIC>MOL_PROPERTY
-TS
SciTegic.value.DoubleValue
32.443

@<SCITEGIC>MOL_PROPERTY
U+W
SciTegic.value.DoubleValue
22.723

@<SCITEGIC>MOL_PROPERTY
U
SciTegic.value.DoubleValue
71.904

@<SCITEGIC>MOL_PROPERTY
W
SciTegic.value.DoubleValue
-49.182

@<SCITEGIC>MOL_PROPERTY
W(PB)
SciTegic.value.DoubleValue
-51.495

@<SCITEGIC>MOL_PROPERTY
W(SA)
SciTegic.value.DoubleValue
2.313

@<SCITEGIC>MOL_PROPERTY
Valence
SciTegic.value.DoubleValue
2.125

@<SCITEGIC>MOL_PROPERTY
Coulomb
SciTegic.value.DoubleValue
69.686

@<SCITEGIC>MOL_PROPERTY
VdW
SciTegic.value.DoubleValue
0.093

@<SCITEGIC>MOL_PROPERTY
VdW6
SciTegic.value.DoubleValue
-6.766

@<SCITEGIC>MOL_PROPERTY
VdW12
SciTegic.value.DoubleValue
6.859

@<SCITEGIC>MOL_PROPERTY
Bond
SciTegic.value.DoubleValue
0.169

@<SCITEGIC>MOL_PROPERTY
Angle
SciTegic.value.DoubleValue
0.621

@<SCITEGIC>MOL_PROPERTY
Pdih
SciTegic.value.DoubleValue
1.336

@<SCITEGIC>MOL_PROPERTY
Idih
SciTegic.value.DoubleValue
0.000

@<SCITEGIC>MOL_PROPERTY
Tether
SciTegic.value.DoubleValue
0.000

@<TRIPOS>MOLECULE
guest-s12_vm2.mol2 : vm2 ligand conformer 35
          26          25           1
SMALL
USER_CHARGES
 
@<TRIPOS>ATOM
       1    N1      19.399837   19.505421   25.773027 N.4        1 MOL1        -0.4857
       2    H1      18.432266   19.272437   25.500739 H          1 MOL1         0.3650
       3    H2      19.598878   20.416816   25.333767 H          1 MOL1         0.3650
       4    C1      20.357580   18.453845   25.246989 C.3        1 MOL1         0.0209
       5    H3      20.110590   17.508263   25.736362 H          1 MOL1         0.0967
       6    H4      21.369204   18.739026   25.546527 H          1 MOL1         0.0967
       7    C2      20.302421   18.267907   23.717900 C.3        1 MOL1        -0.1378
       8    H5      20.956123   17.428311   23.446779 H          1 MOL1         0.0993
       9    H6      19.283949   17.980266   23.428082 H          1 MOL1         0.0993
      10    C3      20.748968   19.536023   22.947832 C.3        1 MOL1        -0.1338
      11    H7      21.725266   19.861853   23.333077 H          1 MOL1         0.0993
      12    H8      20.049617   20.360655   23.139985 H          1 MOL1         0.0993
      13    C4      20.872878   19.317910   21.419669 C.3        1 MOL1        -0.1338
      14    H9      21.299991   20.225843   20.971696 H          1 MOL1         0.0993
      15    H10     21.590007   18.509836   21.219462 H          1 MOL1         0.0993
      16    C5      19.525068   19.002429   20.728362 C.3        1 MOL1        -0.1313
      17    H11     18.792247   19.785405   20.968536 H          1 MOL1         0.0993
      18    H12     19.116278   18.056475   21.107654 H          1 MOL1         0.0993
      19    C6      19.681136   18.901294   19.195915 C.3        1 MOL1        -0.2328
      20    H13     18.717222   18.674500   18.722152 H          1 MOL1         0.1004
      21    H14     20.386167   18.105378   18.922689 H          1 MOL1         0.1004
      22    H15     20.050051   19.844769   18.772899 H          1 MOL1         0.1004
      23    C7      19.520111   19.605171   27.287306 C.3        1 MOL1        -0.0781
      24    H16     18.826194   20.365555   27.652563 H          1 MOL1         0.0978
      25    H17     19.274642   18.637997   27.731440 H          1 MOL1         0.0978
      26    H18     20.543417   19.883457   27.548728 H          1 MOL1         0.0978
@<TRIPOS>BOND
    1     1     2    1
    2     1     3    1
    3     1     4    1
    4     4     5    1
    5     4     6    1
    6     4     7    1
    7     7     8    1
    8     7     9    1
    9     7    10    1
   10    10    11    1
   11    10    12    1
   12    10    13    1
   13    13    14    1
   14    13    15    1
   15    13    16    1
   16    16    17    1
   17    16    18    1
   18    16    19    1
   19    19    20    1
   20    19    21    1
   21    19    22    1
   22     1    23    1
   23    23    24    1
   24    23    25    1
   25    23    26    1
@<TRIPOS>SUBSTRUCTURE
       1 MOL1            1 RESIDUE      1      MOL     
@<SCITEGIC>MOL_PROPERTY
VM2 Rank
SciTegic.value.IntegerValue
35

@<SCITEGIC>MOL_PROPERTY
Conf_Id
SciTegic.value.IntegerValue
1036

@<SCITEGIC>MOL_PROPERTY
Probability
SciTegic.value.DoubleValue
0.97

@<SCITEGIC>MOL_PROPERTY
Sum Probability
SciTegic.value.DoubleValue
68.96

@<SCITEGIC>MOL_PROPERTY
Delta G
SciTegic.value.DoubleValue
1.190

@<SCITEGIC>MOL_PROPERTY
G
SciTegic.value.DoubleValue
76.656

@<SCITEGIC>MOL_PROPERTY
E
SciTegic.value.DoubleValue
44.291

@<SCITEGIC>MOL_PROPERTY
-TS
SciTegic.value.DoubleValue
32.365

@<SCITEGIC>MOL_PROPERTY
U+W
SciTegic.value.DoubleValue
22.830

@<SCITEGIC>MOL_PROPERTY
U
SciTegic.value.DoubleValue
71.994

@<SCITEGIC>MOL_PROPERTY
W
SciTegic.value.DoubleValue
-49.164

@<SCITEGIC>MOL_PROPERTY
W(PB)
SciTegic.value.DoubleValue
-51.485

@<SCITEGIC>MOL_PROPERTY
W(SA)
SciTegic.value.DoubleValue
2.320

@<SCITEGIC>MOL_PROPERTY
Valence
SciTegic.value.DoubleValue
2.376

@<SCITEGIC>MOL_PROPERTY
Coulomb
SciTegic.value.DoubleValue
69.315

@<SCITEGIC>MOL_PROPERTY
VdW
SciTegic.value.DoubleValue
0.303

@<SCITEGIC>MOL_PROPERTY
VdW6
SciTegic.value.DoubleValue
-6.508

@<SCITEGIC>MOL_PROPERTY
VdW12
SciTegic.value.DoubleValue
6.810

@<SCITEGIC>MOL_PROPERTY
Bond
SciTegic.value.DoubleValue
0.182

@<SCITEGIC>MOL_PROPERTY
Angle
SciTegic.value.DoubleValue
0.660

@<SCITEGIC>MOL_PROPERTY
Pdih
SciTegic.value.DoubleValue
1.534

@<SCITEGIC>MOL_PROPERTY
Idih
SciTegic.value.DoubleValue
0.000

@<SCITEGIC>MOL_PROPERTY
Tether
SciTegic.value.DoubleValue
0.000

@<TRIPOS>MOLECULE
guest-s12_vm2.mol2 : vm2 ligand conformer 36
          26          25           1
SMALL
USER_CHARGES
 
@<TRIPOS>ATOM
       1    N1      19.730754   18.729363   26.026768 N.4        1 MOL1        -0.4857
       2    H1      20.116180   17.772668   26.056414 H          1 MOL1         0.3650
       3    H2      18.785376   18.634048   25.626438 H          1 MOL1         0.3650
       4    C1      20.587618   19.609681   25.137370 C.3        1 MOL1         0.0209
       5    H3      21.574857   19.682383   25.600720 H          1 MOL1         0.0967
       6    H4      20.143847   20.608321   25.122049 H          1 MOL1         0.0967
       7    C2      20.738836   19.086879   23.695038 C.3        1 MOL1        -0.1378
       8    H5      21.467425   19.724990   23.179964 H          1 MOL1         0.0993
       9    H6      21.165412   18.075246   23.714898 H          1 MOL1         0.0993
      10    C3      19.399023   19.084848   22.916342 C.3        1 MOL1        -0.1338
      11    H7      18.991746   20.104759   22.877815 H          1 MOL1         0.0993
      12    H8      18.661818   18.479142   23.459620 H          1 MOL1         0.0993
      13    C4      19.519298   18.520477   21.478980 C.3        1 MOL1        -0.1338
      14    H9      19.920202   17.498129   21.516680 H          1 MOL1         0.0993
      15    H10     18.509923   18.439078   21.052357 H          1 MOL1         0.0993
      16    C5      20.390970   19.388778   20.540555 C.3        1 MOL1        -0.1313
      17    H11     21.427200   19.417358   20.902430 H          1 MOL1         0.0993
      18    H12     20.023082   20.424357   20.544624 H          1 MOL1         0.0993
      19    C6      20.381913   18.849021   19.094302 C.3        1 MOL1        -0.2328
      20    H13     20.772718   17.823942   19.053182 H          1 MOL1         0.1004
      21    H14     21.006903   19.474004   18.443298 H          1 MOL1         0.1004
      22    H15     19.365133   18.844071   18.680387 H          1 MOL1         0.1004
      23    C7      19.659589   19.320951   27.427645 C.3        1 MOL1        -0.0781
      24    H16     20.667862   19.382540   27.843009 H          1 MOL1         0.0978
      25    H17     19.219779   20.319266   27.373989 H          1 MOL1         0.0978
      26    H18     19.040039   18.678153   28.057006 H          1 MOL1         0.0978
@<TRIPOS>BOND
    1     1     2    1
    2     1     3    1
    3     1     4    1
    4     4     5    1
    5     4     6    1
    6     4     7    1
    7     7     8    1
    8     7     9    1
    9     7    10    1
   10    10    11    1
   11    10    12    1
   12    10    13    1
   13    13    14    1
   14    13    15    1
   15    13    16    1
   16    16    17    1
   17    16    18    1
   18    16    19    1
   19    19    20    1
   20    19    21    1
   21    19    22    1
   22     1    23    1
   23    23    24    1
   24    23    25    1
   25    23    26    1
@<TRIPOS>SUBSTRUCTURE
       1 MOL1            1 RESIDUE      1      MOL     
@<SCITEGIC>MOL_PROPERTY
VM2 Rank
SciTegic.value.IntegerValue
36

@<SCITEGIC>MOL_PROPERTY
Conf_Id
SciTegic.value.IntegerValue
554

@<SCITEGIC>MOL_PROPERTY
Probability
SciTegic.value.DoubleValue
0.95

@<SCITEGIC>MOL_PROPERTY
Sum Probability
SciTegic.value.DoubleValue
69.91

@<SCITEGIC>MOL_PROPERTY
Delta G
SciTegic.value.DoubleValue
1.198

@<SCITEGIC>MOL_PROPERTY
G
SciTegic.value.DoubleValue
76.664

@<SCITEGIC>MOL_PROPERTY
E
SciTegic.value.DoubleValue
44.334

@<SCITEGIC>MOL_PROPERTY
-TS
SciTegic.value.DoubleValue
32.330

@<SCITEGIC>MOL_PROPERTY
U+W
SciTegic.value.DoubleValue
22.872

@<SCITEGIC>MOL_PROPERTY
U
SciTegic.value.DoubleValue
71.903

@<SCITEGIC>MOL_PROPERTY
W
SciTegic.value.DoubleValue
-49.031

@<SCITEGIC>MOL_PROPERTY
W(PB)
SciTegic.value.DoubleValue
-51.327

@<SCITEGIC>MOL_PROPERTY
W(SA)
SciTegic.value.DoubleValue
2.296

@<SCITEGIC>MOL_PROPERTY
Valence
SciTegic.value.DoubleValue
2.409

@<SCITEGIC>MOL_PROPERTY
Coulomb
SciTegic.value.DoubleValue
69.133

@<SCITEGIC>MOL_PROPERTY
VdW
SciTegic.value.DoubleValue
0.360

@<SCITEGIC>MOL_PROPERTY
VdW6
SciTegic.value.DoubleValue
-6.461

@<SCITEGIC>MOL_PROPERTY
VdW12
SciTegic.value.DoubleValue
6.822

@<SCITEGIC>MOL_PROPERTY
Bond
SciTegic.value.DoubleValue
0.187

@<SCITEGIC>MOL_PROPERTY
Angle
SciTegic.value.DoubleValue
0.708

@<SCITEGIC>MOL_PROPERTY
Pdih
SciTegic.value.DoubleValue
1.514

@<SCITEGIC>MOL_PROPERTY
Idih
SciTegic.value.DoubleValue
0.000

@<SCITEGIC>MOL_PROPERTY
Tether
SciTegic.value.DoubleValue
0.000

@<TRIPOS>MOLECULE
guest-s12_vm2.mol2 : vm2 ligand conformer 37
          26          25           1
SMALL
USER_CHARGES
 
@<TRIPOS>ATOM
       1    N1      19.555856   18.713272   25.910456 N.4        1 MOL1        -0.4857
       2    H1      20.284433   18.325224   26.529644 H          1 MOL1         0.3650
       3    H2      18.956840   17.912649   25.655883 H          1 MOL1         0.3650
       4    C1      20.188023   19.309654   24.669124 C.3        1 MOL1         0.0209
       5    H3      20.821954   20.142988   24.982284 H          1 MOL1         0.0967
       6    H4      19.384230   19.703991   24.042734 H          1 MOL1         0.0967
       7    C2      21.024073   18.296467   23.864141 C.3        1 MOL1        -0.1378
       8    H5      21.803322   17.876948   24.514218 H          1 MOL1         0.0993
       9    H6      20.391275   17.453015   23.559999 H          1 MOL1         0.0993
      10    C3      21.698446   18.929464   22.621312 C.3        1 MOL1        -0.1338
      11    H7      22.275140   18.155870   22.095682 H          1 MOL1         0.0993
      12    H8      22.431608   19.676170   22.956592 H          1 MOL1         0.0993
      13    C4      20.723846   19.604434   21.621333 C.3        1 MOL1        -0.1338
      14    H9      20.217227   20.451327   22.103367 H          1 MOL1         0.0993
      15    H10     21.314107   20.034162   20.800162 H          1 MOL1         0.0993
      16    C5      19.672408   18.635475   21.030445 C.3        1 MOL1        -0.1313
      17    H11     19.021058   18.251391   21.826805 H          1 MOL1         0.0993
      18    H12     20.177226   17.767045   20.584629 H          1 MOL1         0.0993
      19    C6      18.799919   19.325542   19.960249 C.3        1 MOL1        -0.2328
      20    H13     18.258256   20.181135   20.384217 H          1 MOL1         0.1004
      21    H14     18.058430   18.625355   19.554122 H          1 MOL1         0.1004
      22    H15     19.412466   19.688701   19.124736 H          1 MOL1         0.1004
      23    C7      18.745429   19.775692   26.639941 C.3        1 MOL1        -0.0781
      24    H16     17.960971   20.147223   25.976963 H          1 MOL1         0.0978
      25    H17     18.295826   19.333557   27.531855 H          1 MOL1         0.0978
      26    H18     19.406047   20.596366   26.928091 H          1 MOL1         0.0978
@<TRIPOS>BOND
    1     1     2    1
    2     1     3    1
    3     1     4    1
    4     4     5    1
    5     4     6    1
    6     4     7    1
    7     7     8    1
    8     7     9    1
    9     7    10    1
   10    10    11    1
   11    10    12    1
   12    10    13    1
   13    13    14    1
   14    13    15    1
   15    13    16    1
   16    16    17    1
   17    16    18    1
   18    16    19    1
   19    19    20    1
   20    19    21    1
   21    19    22    1
   22     1    23    1
   23    23    24    1
   24    23    25    1
   25    23    26    1
@<TRIPOS>SUBSTRUCTURE
       1 MOL1            1 RESIDUE      1      MOL     
@<SCITEGIC>MOL_PROPERTY
VM2 Rank
SciTegic.value.IntegerValue
37

@<SCITEGIC>MOL_PROPERTY
Conf_Id
SciTegic.value.IntegerValue
282

@<SCITEGIC>MOL_PROPERTY
Probability
SciTegic.value.DoubleValue
0.94

@<SCITEGIC>MOL_PROPERTY
Sum Probability
SciTegic.value.DoubleValue
70.85

@<SCITEGIC>MOL_PROPERTY
Delta G
SciTegic.value.DoubleValue
1.208

@<SCITEGIC>MOL_PROPERTY
G
SciTegic.value.DoubleValue
76.674

@<SCITEGIC>MOL_PROPERTY
E
SciTegic.value.DoubleValue
44.177

@<SCITEGIC>MOL_PROPERTY
-TS
SciTegic.value.DoubleValue
32.497

@<SCITEGIC>MOL_PROPERTY
U+W
SciTegic.value.DoubleValue
22.715

@<SCITEGIC>MOL_PROPERTY
U
SciTegic.value.DoubleValue
72.035

@<SCITEGIC>MOL_PROPERTY
W
SciTegic.value.DoubleValue
-49.320

@<SCITEGIC>MOL_PROPERTY
W(PB)
SciTegic.value.DoubleValue
-51.620

@<SCITEGIC>MOL_PROPERTY
W(SA)
SciTegic.value.DoubleValue
2.300

@<SCITEGIC>MOL_PROPERTY
Valence
SciTegic.value.DoubleValue
2.479

@<SCITEGIC>MOL_PROPERTY
Coulomb
SciTegic.value.DoubleValue
69.414

@<SCITEGIC>MOL_PROPERTY
VdW
SciTegic.value.DoubleValue
0.142

@<SCITEGIC>MOL_PROPERTY
VdW6
SciTegic.value.DoubleValue
-6.882

@<SCITEGIC>MOL_PROPERTY
VdW12
SciTegic.value.DoubleValue
7.025

@<SCITEGIC>MOL_PROPERTY
Bond
SciTegic.value.DoubleValue
0.193

@<SCITEGIC>MOL_PROPERTY
Angle
SciTegic.value.DoubleValue
0.854

@<SCITEGIC>MOL_PROPERTY
Pdih
SciTegic.value.DoubleValue
1.433

@<SCITEGIC>MOL_PROPERTY
Idih
SciTegic.value.DoubleValue
0.000

@<SCITEGIC>MOL_PROPERTY
Tether
SciTegic.value.DoubleValue
0.000

@<TRIPOS>MOLECULE
guest-s12_vm2.mol2 : vm2 ligand conformer 38
          26          25           1
SMALL
USER_CHARGES
 
@<TRIPOS>ATOM
       1    N1      20.030473   18.753302   26.305891 N.4        1 MOL1        -0.4857
       2    H1      20.820481   18.091897   26.362838 H          1 MOL1         0.3650
       3    H2      19.200716   18.215828   26.601614 H          1 MOL1         0.3650
       4    C1      19.857703   19.240211   24.881276 C.3        1 MOL1         0.0209
       5    H3      20.757354   19.797035   24.609141 H          1 MOL1         0.0967
       6    H4      19.007853   19.927103   24.862461 H          1 MOL1         0.0967
       7    C2      19.624063   18.099215   23.872262 C.3        1 MOL1        -0.1378
       8    H5      20.477858   17.408803   23.890357 H          1 MOL1         0.0993
       9    H6      18.744938   17.520059   24.184749 H          1 MOL1         0.0993
      10    C3      19.399590   18.610825   22.429460 C.3        1 MOL1        -0.1338
      11    H7      18.537842   19.292374   22.412416 H          1 MOL1         0.0993
      12    H8      19.130625   17.753273   21.799180 H          1 MOL1         0.0993
      13    C4      20.642181   19.322882   21.836230 C.3        1 MOL1        -0.1338
      14    H9      20.925114   20.165921   22.480254 H          1 MOL1         0.0993
      15    H10     21.498401   18.634309   21.834750 H          1 MOL1         0.0993
      16    C5      20.415565   19.866872   20.404589 C.3        1 MOL1        -0.1313
      17    H11     21.296277   20.453509   20.107754 H          1 MOL1         0.0993
      18    H12     19.566997   20.565263   20.402028 H          1 MOL1         0.0993
      19    C6      20.180478   18.758405   19.353029 C.3        1 MOL1        -0.2328
      20    H13     19.240661   18.222399   19.533767 H          1 MOL1         0.1004
      21    H14     21.000156   18.028275   19.358413 H          1 MOL1         0.1004
      22    H15     20.123696   19.190875   18.345716 H          1 MOL1         0.1004
      23    C7      20.257948   19.938288   27.234263 C.3        1 MOL1        -0.0781
      24    H16     21.158754   20.471328   26.922219 H          1 MOL1         0.0978
      25    H17     19.395513   20.606426   27.181725 H          1 MOL1         0.0978
      26    H18     20.380505   19.573922   28.256692 H          1 MOL1         0.0978
@<TRIPOS>BOND
    1     1     2    1
    2     1     3    1
    3     1     4    1
    4     4     5    1
    5     4     6    1
    6     4     7    1
    7     7     8    1
    8     7     9    1
    9     7    10    1
   10    10    11    1
   11    10    12    1
   12    10    13    1
   13    13    14    1
   14    13    15    1
   15    13    16    1
   16    16    17    1
   17    16    18    1
   18    16    19    1
   19    19    20    1
   20    19    21    1
   21    19    22    1
   22     1    23    1
   23    23    24    1
   24    23    25    1
   25    23    26    1
@<TRIPOS>SUBSTRUCTURE
       1 MOL1            1 RESIDUE      1      MOL     
@<SCITEGIC>MOL_PROPERTY
VM2 Rank
SciTegic.value.IntegerValue
38

@<SCITEGIC>MOL_PROPERTY
Conf_Id
SciTegic.value.IntegerValue
422

@<SCITEGIC>MOL_PROPERTY
Probability
SciTegic.value.DoubleValue
0.93

@<SCITEGIC>MOL_PROPERTY
Sum Probability
SciTegic.value.DoubleValue
71.78

@<SCITEGIC>MOL_PROPERTY
Delta G
SciTegic.value.DoubleValue
1.215

@<SCITEGIC>MOL_PROPERTY
G
SciTegic.value.DoubleValue
76.681

@<SCITEGIC>MOL_PROPERTY
E
SciTegic.value.DoubleValue
44.335

@<SCITEGIC>MOL_PROPERTY
-TS
SciTegic.value.DoubleValue
32.346

@<SCITEGIC>MOL_PROPERTY
U+W
SciTegic.value.DoubleValue
22.873

@<SCITEGIC>MOL_PROPERTY
U
SciTegic.value.DoubleValue
71.810

@<SCITEGIC>MOL_PROPERTY
W
SciTegic.value.DoubleValue
-48.937

@<SCITEGIC>MOL_PROPERTY
W(PB)
SciTegic.value.DoubleValue
-51.227

@<SCITEGIC>MOL_PROPERTY
W(SA)
SciTegic.value.DoubleValue
2.290

@<SCITEGIC>MOL_PROPERTY
Valence
SciTegic.value.DoubleValue
2.569

@<SCITEGIC>MOL_PROPERTY
Coulomb
SciTegic.value.DoubleValue
68.877

@<SCITEGIC>MOL_PROPERTY
VdW
SciTegic.value.DoubleValue
0.364

@<SCITEGIC>MOL_PROPERTY
VdW6
SciTegic.value.DoubleValue
-6.470

@<SCITEGIC>MOL_PROPERTY
VdW12
SciTegic.value.DoubleValue
6.834

@<SCITEGIC>MOL_PROPERTY
Bond
SciTegic.value.DoubleValue
0.191

@<SCITEGIC>MOL_PROPERTY
Angle
SciTegic.value.DoubleValue
0.752

@<SCITEGIC>MOL_PROPERTY
Pdih
SciTegic.value.DoubleValue
1.626

@<SCITEGIC>MOL_PROPERTY
Idih
SciTegic.value.DoubleValue
0.000

@<SCITEGIC>MOL_PROPERTY
Tether
SciTegic.value.DoubleValue
0.000

@<TRIPOS>MOLECULE
guest-s12_vm2.mol2 : vm2 ligand conformer 39
          26          25           1
SMALL
USER_CHARGES
 
@<TRIPOS>ATOM
       1    N1      20.818113   19.196215   25.874123 N.4        1 MOL1        -0.4857
       2    H1      21.432487   19.631813   25.170201 H          1 MOL1         0.3650
       3    H2      21.454857   18.857057   26.612635 H          1 MOL1         0.3650
       4    C1      20.075156   18.018522   25.262537 C.3        1 MOL1         0.0209
       5    H3      19.431528   17.595201   26.037807 H          1 MOL1         0.0967
       6    H4      20.820875   17.264920   24.996831 H          1 MOL1         0.0967
       7    C2      19.229258   18.349188   24.013330 C.3        1 MOL1        -0.1378
       8    H5      18.722897   17.431214   23.686791 H          1 MOL1         0.0993
       9    H6      18.436849   19.061007   24.278354 H          1 MOL1         0.0993
      10    C3      20.076734   18.909152   22.846300 C.3        1 MOL1        -0.1338
      11    H7      20.885039   18.201871   22.618256 H          1 MOL1         0.0993
      12    H8      20.550583   19.852212   23.149549 H          1 MOL1         0.0993
      13    C4      19.218804   19.154750   21.581740 C.3        1 MOL1        -0.1338
      14    H9      18.785722   18.205594   21.236976 H          1 MOL1         0.0993
      15    H10     18.371544   19.803651   21.843470 H          1 MOL1         0.0993
      16    C5      20.003465   19.815502   20.422369 C.3        1 MOL1        -0.1313
      17    H11     20.417780   20.777681   20.754572 H          1 MOL1         0.0993
      18    H12     19.301555   20.048112   19.609296 H          1 MOL1         0.0993
      19    C6      21.137461   18.926877   19.862149 C.3        1 MOL1        -0.2328
      20    H13     21.928486   18.765904   20.604945 H          1 MOL1         0.1004
      21    H14     21.599611   19.400662   18.986439 H          1 MOL1         0.1004
      22    H15     20.753777   17.947001   19.549699 H          1 MOL1         0.1004
      23    C7      19.849009   20.219793   26.454452 C.3        1 MOL1        -0.0781
      24    H16     20.418520   21.030767   26.913820 H          1 MOL1         0.0978
      25    H17     19.222918   20.618579   25.653728 H          1 MOL1         0.0978
      26    H18     19.224138   19.735189   27.207765 H          1 MOL1         0.0978
@<TRIPOS>BOND
    1     1     2    1
    2     1     3    1
    3     1     4    1
    4     4     5    1
    5     4     6    1
    6     4     7    1
    7     7     8    1
    8     7     9    1
    9     7    10    1
   10    10    11    1
   11    10    12    1
   12    10    13    1
   13    13    14    1
   14    13    15    1
   15    13    16    1
   16    16    17    1
   17    16    18    1
   18    16    19    1
   19    19    20    1
   20    19    21    1
   21    19    22    1
   22     1    23    1
   23    23    24    1
   24    23    25    1
   25    23    26    1
@<TRIPOS>SUBSTRUCTURE
       1 MOL1            1 RESIDUE      1      MOL     
@<SCITEGIC>MOL_PROPERTY
VM2 Rank
SciTegic.value.IntegerValue
39

@<SCITEGIC>MOL_PROPERTY
Conf_Id
SciTegic.value.IntegerValue
849

@<SCITEGIC>MOL_PROPERTY
Probability
SciTegic.value.DoubleValue
0.92

@<SCITEGIC>MOL_PROPERTY
Sum Probability
SciTegic.value.DoubleValue
72.70

@<SCITEGIC>MOL_PROPERTY
Delta G
SciTegic.value.DoubleValue
1.217

@<SCITEGIC>MOL_PROPERTY
G
SciTegic.value.DoubleValue
76.683

@<SCITEGIC>MOL_PROPERTY
E
SciTegic.value.DoubleValue
44.092

@<SCITEGIC>MOL_PROPERTY
-TS
SciTegic.value.DoubleValue
32.591

@<SCITEGIC>MOL_PROPERTY
U+W
SciTegic.value.DoubleValue
22.630

@<SCITEGIC>MOL_PROPERTY
U
SciTegic.value.DoubleValue
72.183

@<SCITEGIC>MOL_PROPERTY
W
SciTegic.value.DoubleValue
-49.553

@<SCITEGIC>MOL_PROPERTY
W(PB)
SciTegic.value.DoubleValue
-51.789

@<SCITEGIC>MOL_PROPERTY
W(SA)
SciTegic.value.DoubleValue
2.236

@<SCITEGIC>MOL_PROPERTY
Valence
SciTegic.value.DoubleValue
2.592

@<SCITEGIC>MOL_PROPERTY
Coulomb
SciTegic.value.DoubleValue
69.072

@<SCITEGIC>MOL_PROPERTY
VdW
SciTegic.value.DoubleValue
0.519

@<SCITEGIC>MOL_PROPERTY
VdW6
SciTegic.value.DoubleValue
-7.379

@<SCITEGIC>MOL_PROPERTY
VdW12
SciTegic.value.DoubleValue
7.899

@<SCITEGIC>MOL_PROPERTY
Bond
SciTegic.value.DoubleValue
0.219

@<SCITEGIC>MOL_PROPERTY
Angle
SciTegic.value.DoubleValue
0.818

@<SCITEGIC>MOL_PROPERTY
Pdih
SciTegic.value.DoubleValue
1.555

@<SCITEGIC>MOL_PROPERTY
Idih
SciTegic.value.DoubleValue
0.000

@<SCITEGIC>MOL_PROPERTY
Tether
SciTegic.value.DoubleValue
0.000

@<TRIPOS>MOLECULE
guest-s12_vm2.mol2 : vm2 ligand conformer 40
          26          25           1
SMALL
USER_CHARGES
 
@<TRIPOS>ATOM
       1    N1      19.924680   18.742466   26.302133 N.4        1 MOL1        -0.4857
       2    H1      20.823238   18.381907   26.659090 H          1 MOL1         0.3650
       3    H2      19.282852   17.934488   26.308325 H          1 MOL1         0.3650
       4    C1      20.094695   19.264476   24.889666 C.3        1 MOL1         0.0209
       5    H3      20.787190   20.109216   24.925483 H          1 MOL1         0.0967
       6    H4      19.122305   19.629708   24.551220 H          1 MOL1         0.0967
       7    C2      20.624395   18.201594   23.907693 C.3        1 MOL1        -0.1378
       8    H5      21.578401   17.810005   24.285129 H          1 MOL1         0.0993
       9    H6      19.928773   17.352642   23.870890 H          1 MOL1         0.0993
      10    C3      20.841235   18.758353   22.480524 C.3        1 MOL1        -0.1338
      11    H7      21.321467   17.977426   21.876769 H          1 MOL1         0.0993
      12    H8      21.546433   19.600151   22.518976 H          1 MOL1         0.0993
      13    C4      19.524990   19.208731   21.796686 C.3        1 MOL1        -0.1338
      14    H9      18.827855   18.361341   21.740293 H          1 MOL1         0.0993
      15    H10     19.033154   19.972610   22.413226 H          1 MOL1         0.0993
      16    C5      19.736594   19.797411   20.380510 C.3        1 MOL1        -0.1313
      17    H11     20.424607   20.652855   20.432259 H          1 MOL1         0.0993
      18    H12     18.778482   20.196081   20.018584 H          1 MOL1         0.0993
      19    C6      20.263764   18.766781   19.355990 C.3        1 MOL1        -0.2328
      20    H13     19.610172   17.886084   19.309285 H          1 MOL1         0.1004
      21    H14     21.277494   18.430436   19.605879 H          1 MOL1         0.1004
      22    H15     20.302333   19.208934   18.352024 H          1 MOL1         0.1004
      23    C7      19.397648   19.850188   27.203798 C.3        1 MOL1        -0.0781
      24    H16     19.279883   19.461152   28.217665 H          1 MOL1         0.0978
      25    H17     20.108628   20.679320   27.207183 H          1 MOL1         0.0978
      26    H18     18.431810   20.192260   26.825517 H          1 MOL1         0.0978
@<TRIPOS>BOND
    1     1     2    1
    2     1     3    1
    3     1     4    1
    4     4     5    1
    5     4     6    1
    6     4     7    1
    7     7     8    1
    8     7     9    1
    9     7    10    1
   10    10    11    1
   11    10    12    1
   12    10    13    1
   13    13    14    1
   14    13    15    1
   15    13    16    1
   16    16    17    1
   17    16    18    1
   18    16    19    1
   19    19    20    1
   20    19    21    1
   21    19    22    1
   22     1    23    1
   23    23    24    1
   24    23    25    1
   25    23    26    1
@<TRIPOS>SUBSTRUCTURE
       1 MOL1            1 RESIDUE      1      MOL     
@<SCITEGIC>MOL_PROPERTY
VM2 Rank
SciTegic.value.IntegerValue
40

@<SCITEGIC>MOL_PROPERTY
Conf_Id
SciTegic.value.IntegerValue
201

@<SCITEGIC>MOL_PROPERTY
Probability
SciTegic.value.DoubleValue
0.92

@<SCITEGIC>MOL_PROPERTY
Sum Probability
SciTegic.value.DoubleValue
73.62

@<SCITEGIC>MOL_PROPERTY
Delta G
SciTegic.value.DoubleValue
1.220

@<SCITEGIC>MOL_PROPERTY
G
SciTegic.value.DoubleValue
76.686

@<SCITEGIC>MOL_PROPERTY
E
SciTegic.value.DoubleValue
44.340

@<SCITEGIC>MOL_PROPERTY
-TS
SciTegic.value.DoubleValue
32.346

@<SCITEGIC>MOL_PROPERTY
U+W
SciTegic.value.DoubleValue
22.878

@<SCITEGIC>MOL_PROPERTY
U
SciTegic.value.DoubleValue
71.810

@<SCITEGIC>MOL_PROPERTY
W
SciTegic.value.DoubleValue
-48.932

@<SCITEGIC>MOL_PROPERTY
W(PB)
SciTegic.value.DoubleValue
-51.258

@<SCITEGIC>MOL_PROPERTY
W(SA)
SciTegic.value.DoubleValue
2.326

@<SCITEGIC>MOL_PROPERTY
Valence
SciTegic.value.DoubleValue
2.569

@<SCITEGIC>MOL_PROPERTY
Coulomb
SciTegic.value.DoubleValue
68.877

@<SCITEGIC>MOL_PROPERTY
VdW
SciTegic.value.DoubleValue
0.364

@<SCITEGIC>MOL_PROPERTY
VdW6
SciTegic.value.DoubleValue
-6.470

@<SCITEGIC>MOL_PROPERTY
VdW12
SciTegic.value.DoubleValue
6.834

@<SCITEGIC>MOL_PROPERTY
Bond
SciTegic.value.DoubleValue
0.191

@<SCITEGIC>MOL_PROPERTY
Angle
SciTegic.value.DoubleValue
0.752

@<SCITEGIC>MOL_PROPERTY
Pdih
SciTegic.value.DoubleValue
1.626

@<SCITEGIC>MOL_PROPERTY
Idih
SciTegic.value.DoubleValue
0.000

@<SCITEGIC>MOL_PROPERTY
Tether
SciTegic.value.DoubleValue
0.000

@<TRIPOS>MOLECULE
guest-s12_vm2.mol2 : vm2 ligand conformer 41
          26          25           1
SMALL
USER_CHARGES
 
@<TRIPOS>ATOM
       1    N1      20.475210   19.810075   25.787565 N.4        1 MOL1        -0.4857
       2    H1      20.450676   20.501388   26.553965 H          1 MOL1         0.3650
       3    H2      21.021970   20.260205   25.038525 H          1 MOL1         0.3650
       4    C1      19.059077   19.532949   25.307008 C.3        1 MOL1         0.0209
       5    H3      18.585031   20.498870   25.114940 H          1 MOL1         0.0967
       6    H4      18.520244   19.051801   26.127162 H          1 MOL1         0.0967
       7    C2      18.951509   18.660265   24.037185 C.3        1 MOL1        -0.1378
       8    H5      19.370607   17.664787   24.232746 H          1 MOL1         0.0993
       9    H6      17.887373   18.508372   23.813151 H          1 MOL1         0.0993
      10    C3      19.648416   19.296338   22.810966 C.3        1 MOL1        -0.1338
      11    H7      20.718878   19.414372   23.020721 H          1 MOL1         0.0993
      12    H8      19.241293   20.302378   22.639175 H          1 MOL1         0.0993
      13    C4      19.461308   18.438323   21.536462 C.3        1 MOL1        -0.1338
      14    H9      19.909373   17.446584   21.688226 H          1 MOL1         0.0993
      15    H10     18.388161   18.270072   21.370851 H          1 MOL1         0.0993
      16    C5      20.058488   19.085576   20.263305 C.3        1 MOL1        -0.1313
      17    H11     19.597353   20.068802   20.094686 H          1 MOL1         0.0993
      18    H12     19.789813   18.467801   19.394949 H          1 MOL1         0.0993
      19    C6      21.596430   19.233936   20.311599 C.3        1 MOL1        -0.2328
      20    H13     22.080439   18.268988   20.510620 H          1 MOL1         0.1004
      21    H14     21.909556   19.942852   21.087925 H          1 MOL1         0.1004
      22    H15     21.976358   19.607852   19.352031 H          1 MOL1         0.1004
      23    C7      21.157562   18.532537   26.262911 C.3        1 MOL1        -0.0781
      24    H16     20.566353   18.087768   27.066303 H          1 MOL1         0.0978
      25    H17     21.235298   17.832806   25.428335 H          1 MOL1         0.0978
      26    H18     22.156277   18.776743   26.631657 H          1 MOL1         0.0978
@<TRIPOS>BOND
    1     1     2    1
    2     1     3    1
    3     1     4    1
    4     4     5    1
    5     4     6    1
    6     4     7    1
    7     7     8    1
    8     7     9    1
    9     7    10    1
   10    10    11    1
   11    10    12    1
   12    10    13    1
   13    13    14    1
   14    13    15    1
   15    13    16    1
   16    16    17    1
   17    16    18    1
   18    16    19    1
   19    19    20    1
   20    19    21    1
   21    19    22    1
   22     1    23    1
   23    23    24    1
   24    23    25    1
   25    23    26    1
@<TRIPOS>SUBSTRUCTURE
       1 MOL1            1 RESIDUE      1      MOL     
@<SCITEGIC>MOL_PROPERTY
VM2 Rank
SciTegic.value.IntegerValue
41

@<SCITEGIC>MOL_PROPERTY
Conf_Id
SciTegic.value.IntegerValue
779

@<SCITEGIC>MOL_PROPERTY
Probability
SciTegic.value.DoubleValue
0.88

@<SCITEGIC>MOL_PROPERTY
Sum Probability
SciTegic.value.DoubleValue
74.51

@<SCITEGIC>MOL_PROPERTY
Delta G
SciTegic.value.DoubleValue
1.244

@<SCITEGIC>MOL_PROPERTY
G
SciTegic.value.DoubleValue
76.710

@<SCITEGIC>MOL_PROPERTY
E
SciTegic.value.DoubleValue
44.124

@<SCITEGIC>MOL_PROPERTY
-TS
SciTegic.value.DoubleValue
32.585

@<SCITEGIC>MOL_PROPERTY
U+W
SciTegic.value.DoubleValue
22.663

@<SCITEGIC>MOL_PROPERTY
U
SciTegic.value.DoubleValue
72.301

@<SCITEGIC>MOL_PROPERTY
W
SciTegic.value.DoubleValue
-49.638

@<SCITEGIC>MOL_PROPERTY
W(PB)
SciTegic.value.DoubleValue
-51.896

@<SCITEGIC>MOL_PROPERTY
W(SA)
SciTegic.value.DoubleValue
2.258

@<SCITEGIC>MOL_PROPERTY
Valence
SciTegic.value.DoubleValue
2.588

@<SCITEGIC>MOL_PROPERTY
Coulomb
SciTegic.value.DoubleValue
69.202

@<SCITEGIC>MOL_PROPERTY
VdW
SciTegic.value.DoubleValue
0.511

@<SCITEGIC>MOL_PROPERTY
VdW6
SciTegic.value.DoubleValue
-7.408

@<SCITEGIC>MOL_PROPERTY
VdW12
SciTegic.value.DoubleValue
7.919

@<SCITEGIC>MOL_PROPERTY
Bond
SciTegic.value.DoubleValue
0.221

@<SCITEGIC>MOL_PROPERTY
Angle
SciTegic.value.DoubleValue
0.820

@<SCITEGIC>MOL_PROPERTY
Pdih
SciTegic.value.DoubleValue
1.547

@<SCITEGIC>MOL_PROPERTY
Idih
SciTegic.value.DoubleValue
0.000

@<SCITEGIC>MOL_PROPERTY
Tether
SciTegic.value.DoubleValue
0.000

@<TRIPOS>MOLECULE
guest-s12_vm2.mol2 : vm2 ligand conformer 42
          26          25           1
SMALL
USER_CHARGES
 
@<TRIPOS>ATOM
       1    N1      20.241701   18.781582   26.044926 N.4        1 MOL1        -0.4857
       2    H1      21.212489   18.882014   25.712406 H          1 MOL1         0.3650
       3    H2      20.056375   17.766563   26.054556 H          1 MOL1         0.3650
       4    C1      19.289049   19.476819   25.091351 C.3        1 MOL1         0.0209
       5    H3      19.521767   20.544627   25.099943 H          1 MOL1         0.0967
       6    H4      18.277506   19.345178   25.483874 H          1 MOL1         0.0967
       7    C2      19.348048   18.944520   23.645775 C.3        1 MOL1        -0.1378
       8    H5      19.134440   17.867428   23.642990 H          1 MOL1         0.0993
       9    H6      18.543423   19.425840   23.076358 H          1 MOL1         0.0993
      10    C3      20.711802   19.218905   22.962868 C.3        1 MOL1        -0.1338
      11    H7      21.516302   18.770748   23.560731 H          1 MOL1         0.0993
      12    H8      20.906258   20.300325   22.945741 H          1 MOL1         0.0993
      13    C4      20.809010   18.652293   21.524642 C.3        1 MOL1        -0.1338
      14    H9      21.841360   18.779611   21.170361 H          1 MOL1         0.0993
      15    H10     20.621313   17.569782   21.541399 H          1 MOL1         0.0993
      16    C5      19.847783   19.333335   20.521330 C.3        1 MOL1        -0.1313
      17    H11     19.997674   20.421825   20.543787 H          1 MOL1         0.0993
      18    H12     18.804404   19.149390   20.809542 H          1 MOL1         0.0993
      19    C6      20.066919   18.816964   19.083134 C.3        1 MOL1        -0.2328
      20    H13     19.895131   17.734391   19.022044 H          1 MOL1         0.1004
      21    H14     21.090157   19.020517   18.741464 H          1 MOL1         0.1004
      22    H15     19.375682   19.307460   18.385546 H          1 MOL1         0.1004
      23    C7      20.093687   19.365582   27.442974 C.3        1 MOL1        -0.0781
      24    H16     20.325474   20.432500   27.412893 H          1 MOL1         0.0978
      25    H17     19.067203   19.219376   27.786326 H          1 MOL1         0.0978
      26    H18     20.784685   18.856799   28.118833 H          1 MOL1         0.0978
@<TRIPOS>BOND
    1     1     2    1
    2     1     3    1
    3     1     4    1
    4     4     5    1
    5     4     6    1
    6     4     7    1
    7     7     8    1
    8     7     9    1
    9     7    10    1
   10    10    11    1
   11    10    12    1
   12    10    13    1
   13    13    14    1
   14    13    15    1
   15    13    16    1
   16    16    17    1
   17    16    18    1
   18    16    19    1
   19    19    20    1
   20    19    21    1
   21    19    22    1
   22     1    23    1
   23    23    24    1
   24    23    25    1
   25    23    26    1
@<TRIPOS>SUBSTRUCTURE
       1 MOL1            1 RESIDUE      1      MOL     
@<SCITEGIC>MOL_PROPERTY
VM2 Rank
SciTegic.value.IntegerValue
42

@<SCITEGIC>MOL_PROPERTY
Conf_Id
SciTegic.value.IntegerValue
1019

@<SCITEGIC>MOL_PROPERTY
Probability
SciTegic.value.DoubleValue
0.87

@<SCITEGIC>MOL_PROPERTY
Sum Probability
SciTegic.value.DoubleValue
75.38

@<SCITEGIC>MOL_PROPERTY
Delta G
SciTegic.value.DoubleValue
1.253

@<SCITEGIC>MOL_PROPERTY
G
SciTegic.value.DoubleValue
76.720

@<SCITEGIC>MOL_PROPERTY
E
SciTegic.value.DoubleValue
44.390

@<SCITEGIC>MOL_PROPERTY
-TS
SciTegic.value.DoubleValue
32.330

@<SCITEGIC>MOL_PROPERTY
U+W
SciTegic.value.DoubleValue
22.928

@<SCITEGIC>MOL_PROPERTY
U
SciTegic.value.DoubleValue
71.903

@<SCITEGIC>MOL_PROPERTY
W
SciTegic.value.DoubleValue
-48.975

@<SCITEGIC>MOL_PROPERTY
W(PB)
SciTegic.value.DoubleValue
-51.297

@<SCITEGIC>MOL_PROPERTY
W(SA)
SciTegic.value.DoubleValue
2.321

@<SCITEGIC>MOL_PROPERTY
Valence
SciTegic.value.DoubleValue
2.409

@<SCITEGIC>MOL_PROPERTY
Coulomb
SciTegic.value.DoubleValue
69.133

@<SCITEGIC>MOL_PROPERTY
VdW
SciTegic.value.DoubleValue
0.360

@<SCITEGIC>MOL_PROPERTY
VdW6
SciTegic.value.DoubleValue
-6.461

@<SCITEGIC>MOL_PROPERTY
VdW12
SciTegic.value.DoubleValue
6.822

@<SCITEGIC>MOL_PROPERTY
Bond
SciTegic.value.DoubleValue
0.187

@<SCITEGIC>MOL_PROPERTY
Angle
SciTegic.value.DoubleValue
0.708

@<SCITEGIC>MOL_PROPERTY
Pdih
SciTegic.value.DoubleValue
1.514

@<SCITEGIC>MOL_PROPERTY
Idih
SciTegic.value.DoubleValue
0.000

@<SCITEGIC>MOL_PROPERTY
Tether
SciTegic.value.DoubleValue
0.000

@<TRIPOS>MOLECULE
guest-s12_vm2.mol2 : vm2 ligand conformer 43
          26          25           1
SMALL
USER_CHARGES
 
@<TRIPOS>ATOM
       1    N1      19.457280   19.124793   26.020039 N.4        1 MOL1        -0.4857
       2    H1      19.275875   18.797014   26.982065 H          1 MOL1         0.3650
       3    H2      18.562904   19.001974   25.522297 H          1 MOL1         0.3650
       4    C1      20.533181   18.259678   25.382070 C.3        1 MOL1         0.0209
       5    H3      20.240574   17.216462   25.525912 H          1 MOL1         0.0967
       6    H4      21.462164   18.426960   25.932977 H          1 MOL1         0.0967
       7    C2      20.772720   18.510554   23.877207 C.3        1 MOL1        -0.1378
       8    H5      21.130865   19.536915   23.731969 H          1 MOL1         0.0993
       9    H6      21.581875   17.848758   23.541349 H          1 MOL1         0.0993
      10    C3      19.508052   18.251119   23.020819 C.3        1 MOL1        -0.1338
      11    H7      18.719429   18.967118   23.288409 H          1 MOL1         0.0993
      12    H8      19.114771   17.252860   23.258253 H          1 MOL1         0.0993
      13    C4      19.769084   18.326539   21.496277 C.3        1 MOL1        -0.1338
      14    H9      20.543157   17.598038   21.218060 H          1 MOL1         0.0993
      15    H10     18.854385   18.019047   20.970736 H          1 MOL1         0.0993
      16    C5      20.179435   19.736314   21.008164 C.3        1 MOL1        -0.1313
      17    H11     21.133858   20.032623   21.463167 H          1 MOL1         0.0993
      18    H12     19.430508   20.473341   21.330151 H          1 MOL1         0.0993
      19    C6      20.320193   19.788360   19.471797 C.3        1 MOL1        -0.2328
      20    H13     21.084497   19.082488   19.121390 H          1 MOL1         0.1004
      21    H14     20.614313   20.793621   19.143230 H          1 MOL1         0.1004
      22    H15     19.371741   19.537585   18.979116 H          1 MOL1         0.1004
      23    C7      19.868054   20.592643   26.040625 C.3        1 MOL1        -0.0781
      24    H16     19.088067   21.175059   26.536057 H          1 MOL1         0.0978
      25    H17     20.807891   20.694425   26.587554 H          1 MOL1         0.0978
      26    H18     19.995067   20.946352   25.015477 H          1 MOL1         0.0978
@<TRIPOS>BOND
    1     1     2    1
    2     1     3    1
    3     1     4    1
    4     4     5    1
    5     4     6    1
    6     4     7    1
    7     7     8    1
    8     7     9    1
    9     7    10    1
   10    10    11    1
   11    10    12    1
   12    10    13    1
   13    13    14    1
   14    13    15    1
   15    13    16    1
   16    16    17    1
   17    16    18    1
   18    16    19    1
   19    19    20    1
   20    19    21    1
   21    19    22    1
   22     1    23    1
   23    23    24    1
   24    23    25    1
   25    23    26    1
@<TRIPOS>SUBSTRUCTURE
       1 MOL1            1 RESIDUE      1      MOL     
@<SCITEGIC>MOL_PROPERTY
VM2 Rank
SciTegic.value.IntegerValue
43

@<SCITEGIC>MOL_PROPERTY
Conf_Id
SciTegic.value.IntegerValue
444

@<SCITEGIC>MOL_PROPERTY
Probability
SciTegic.value.DoubleValue
0.85

@<SCITEGIC>MOL_PROPERTY
Sum Probability
SciTegic.value.DoubleValue
76.23

@<SCITEGIC>MOL_PROPERTY
Delta G
SciTegic.value.DoubleValue
1.265

@<SCITEGIC>MOL_PROPERTY
G
SciTegic.value.DoubleValue
76.731

@<SCITEGIC>MOL_PROPERTY
E
SciTegic.value.DoubleValue
44.141

@<SCITEGIC>MOL_PROPERTY
-TS
SciTegic.value.DoubleValue
32.591

@<SCITEGIC>MOL_PROPERTY
U+W
SciTegic.value.DoubleValue
22.679

@<SCITEGIC>MOL_PROPERTY
U
SciTegic.value.DoubleValue
72.280

@<SCITEGIC>MOL_PROPERTY
W
SciTegic.value.DoubleValue
-49.601

@<SCITEGIC>MOL_PROPERTY
W(PB)
SciTegic.value.DoubleValue
-51.847

@<SCITEGIC>MOL_PROPERTY
W(SA)
SciTegic.value.DoubleValue
2.246

@<SCITEGIC>MOL_PROPERTY
Valence
SciTegic.value.DoubleValue
2.616

@<SCITEGIC>MOL_PROPERTY
Coulomb
SciTegic.value.DoubleValue
69.198

@<SCITEGIC>MOL_PROPERTY
VdW
SciTegic.value.DoubleValue
0.465

@<SCITEGIC>MOL_PROPERTY
VdW6
SciTegic.value.DoubleValue
-7.468

@<SCITEGIC>MOL_PROPERTY
VdW12
SciTegic.value.DoubleValue
7.934

@<SCITEGIC>MOL_PROPERTY
Bond
SciTegic.value.DoubleValue
0.224

@<SCITEGIC>MOL_PROPERTY
Angle
SciTegic.value.DoubleValue
0.811

@<SCITEGIC>MOL_PROPERTY
Pdih
SciTegic.value.DoubleValue
1.582

@<SCITEGIC>MOL_PROPERTY
Idih
SciTegic.value.DoubleValue
0.000

@<SCITEGIC>MOL_PROPERTY
Tether
SciTegic.value.DoubleValue
0.000

@<TRIPOS>MOLECULE
guest-s12_vm2.mol2 : vm2 ligand conformer 44
          26          25           1
SMALL
USER_CHARGES
 
@<TRIPOS>ATOM
       1    N1      19.095955   19.019763   25.813149 N.4        1 MOL1        -0.4857
       2    H1      18.490952   18.553346   26.507627 H          1 MOL1         0.3650
       3    H2      18.456947   19.327023   25.064840 H          1 MOL1         0.3650
       4    C1      20.102976   18.021386   25.263481 C.3        1 MOL1         0.0209
       5    H3      19.545799   17.134325   24.951567 H          1 MOL1         0.0967
       6    H4      20.763103   17.731574   26.084909 H          1 MOL1         0.0967
       7    C2      20.949717   18.525544   24.074257 C.3        1 MOL1        -0.1378
       8    H5      21.560931   19.381216   24.389027 H          1 MOL1         0.0993
       9    H6      21.653157   17.731565   23.790578 H          1 MOL1         0.0993
      10    C3      20.090234   18.910567   22.846747 C.3        1 MOL1        -0.1338
      11    H7      19.415102   19.735873   23.109282 H          1 MOL1         0.0993
      12    H8      19.459980   18.055848   22.567740 H          1 MOL1         0.0993
      13    C4      20.967033   19.333932   21.643642 C.3        1 MOL1        -0.1338
      14    H9      21.644799   20.139144   21.959385 H          1 MOL1         0.0993
      15    H10     21.606496   18.494694   21.336905 H          1 MOL1         0.0993
      16    C5      20.147954   19.830274   20.427424 C.3        1 MOL1        -0.1313
      17    H11     20.843381   20.205996   19.663821 H          1 MOL1         0.0993
      18    H12     19.525129   20.686212   20.722825 H          1 MOL1         0.0993
      19    C6      19.259507   18.734392   19.795637 C.3        1 MOL1        -0.2328
      20    H13     18.773480   19.110957   18.886296 H          1 MOL1         0.1004
      21    H14     18.467427   18.411292   20.482365 H          1 MOL1         0.1004
      22    H15     19.854607   17.854768   19.517946 H          1 MOL1         0.1004
      23    C7      19.794624   20.214142   26.452663 C.3        1 MOL1        -0.0781
      24    H16     20.450347   19.860672   27.251333 H          1 MOL1         0.0978
      25    H17     20.381506   20.737241   25.694960 H          1 MOL1         0.0978
      26    H18     19.041939   20.889640   26.865225 H          1 MOL1         0.0978
@<TRIPOS>BOND
    1     1     2    1
    2     1     3    1
    3     1     4    1
    4     4     5    1
    5     4     6    1
    6     4     7    1
    7     7     8    1
    8     7     9    1
    9     7    10    1
   10    10    11    1
   11    10    12    1
   12    10    13    1
   13    13    14    1
   14    13    15    1
   15    13    16    1
   16    16    17    1
   17    16    18    1
   18    16    19    1
   19    19    20    1
   20    19    21    1
   21    19    22    1
   22     1    23    1
   23    23    24    1
   24    23    25    1
   25    23    26    1
@<TRIPOS>SUBSTRUCTURE
       1 MOL1            1 RESIDUE      1      MOL     
@<SCITEGIC>MOL_PROPERTY
VM2 Rank
SciTegic.value.IntegerValue
44

@<SCITEGIC>MOL_PROPERTY
Conf_Id
SciTegic.value.IntegerValue
1107

@<SCITEGIC>MOL_PROPERTY
Probability
SciTegic.value.DoubleValue
0.84

@<SCITEGIC>MOL_PROPERTY
Sum Probability
SciTegic.value.DoubleValue
77.07

@<SCITEGIC>MOL_PROPERTY
Delta G
SciTegic.value.DoubleValue
1.273

@<SCITEGIC>MOL_PROPERTY
G
SciTegic.value.DoubleValue
76.739

@<SCITEGIC>MOL_PROPERTY
E
SciTegic.value.DoubleValue
44.148

@<SCITEGIC>MOL_PROPERTY
-TS
SciTegic.value.DoubleValue
32.591

@<SCITEGIC>MOL_PROPERTY
U+W
SciTegic.value.DoubleValue
22.686

@<SCITEGIC>MOL_PROPERTY
U
SciTegic.value.DoubleValue
72.183

@<SCITEGIC>MOL_PROPERTY
W
SciTegic.value.DoubleValue
-49.497

@<SCITEGIC>MOL_PROPERTY
W(PB)
SciTegic.value.DoubleValue
-51.756

@<SCITEGIC>MOL_PROPERTY
W(SA)
SciTegic.value.DoubleValue
2.258

@<SCITEGIC>MOL_PROPERTY
Valence
SciTegic.value.DoubleValue
2.592

@<SCITEGIC>MOL_PROPERTY
Coulomb
SciTegic.value.DoubleValue
69.072

@<SCITEGIC>MOL_PROPERTY
VdW
SciTegic.value.DoubleValue
0.519

@<SCITEGIC>MOL_PROPERTY
VdW6
SciTegic.value.DoubleValue
-7.379

@<SCITEGIC>MOL_PROPERTY
VdW12
SciTegic.value.DoubleValue
7.898

@<SCITEGIC>MOL_PROPERTY
Bond
SciTegic.value.DoubleValue
0.219

@<SCITEGIC>MOL_PROPERTY
Angle
SciTegic.value.DoubleValue
0.818

@<SCITEGIC>MOL_PROPERTY
Pdih
SciTegic.value.DoubleValue
1.555

@<SCITEGIC>MOL_PROPERTY
Idih
SciTegic.value.DoubleValue
0.000

@<SCITEGIC>MOL_PROPERTY
Tether
SciTegic.value.DoubleValue
0.000

@<TRIPOS>MOLECULE
guest-s12_vm2.mol2 : vm2 ligand conformer 45
          26          25           1
SMALL
USER_CHARGES
 
@<TRIPOS>ATOM
       1    N1      20.429401   19.224734   26.054487 N.4        1 MOL1        -0.4857
       2    H1      21.362666   19.289875   25.621457 H          1 MOL1         0.3650
       3    H2      20.605860   18.933731   27.029176 H          1 MOL1         0.3650
       4    C1      19.599155   18.163616   25.348999 C.3        1 MOL1         0.0209
       5    H3      18.619344   18.134568   25.832341 H          1 MOL1         0.0967
       6    H4      20.086925   17.200650   25.520423 H          1 MOL1         0.0967
       7    C2      19.419505   18.371440   23.829305 C.3        1 MOL1        -0.1378
       8    H5      18.787291   17.561430   23.442400 H          1 MOL1         0.0993
       9    H6      18.871270   19.304600   23.652008 H          1 MOL1         0.0993
      10    C3      20.767263   18.380683   23.065399 C.3        1 MOL1        -0.1338
      11    H7      21.337680   17.481549   23.336968 H          1 MOL1         0.0993
      12    H8      21.373155   19.240119   23.382337 H          1 MOL1         0.0993
      13    C4      20.603692   18.412391   21.525826 C.3        1 MOL1        -0.1338
      14    H9      21.596293   18.301067   21.067821 H          1 MOL1         0.0993
      15    H10     20.015309   17.543743   21.199387 H          1 MOL1         0.0993
      16    C5      19.950486   19.712754   21.000015 C.3        1 MOL1        -0.1313
      17    H11     20.509476   20.584329   21.368342 H          1 MOL1         0.0993
      18    H12     18.926273   19.805528   21.384898 H          1 MOL1         0.0993
      19    C6      19.910079   19.746127   19.457226 C.3        1 MOL1        -0.2328
      20    H13     19.441476   20.672923   19.101594 H          1 MOL1         0.1004
      21    H14     19.331726   18.902133   19.059252 H          1 MOL1         0.1004
      22    H15     20.921846   19.696969   19.034033 H          1 MOL1         0.1004
      23    C7      19.728420   20.578255   26.035743 C.3        1 MOL1        -0.0781
      24    H16     19.604214   20.906152   25.001708 H          1 MOL1         0.0978
      25    H17     18.751595   20.482920   26.514815 H          1 MOL1         0.0978
      26    H18     20.337112   21.303467   26.580355 H          1 MOL1         0.0978
@<TRIPOS>BOND
    1     1     2    1
    2     1     3    1
    3     1     4    1
    4     4     5    1
    5     4     6    1
    6     4     7    1
    7     7     8    1
    8     7     9    1
    9     7    10    1
   10    10    11    1
   11    10    12    1
   12    10    13    1
   13    13    14    1
   14    13    15    1
   15    13    16    1
   16    16    17    1
   17    16    18    1
   18    16    19    1
   19    19    20    1
   20    19    21    1
   21    19    22    1
   22     1    23    1
   23    23    24    1
   24    23    25    1
   25    23    26    1
@<TRIPOS>SUBSTRUCTURE
       1 MOL1            1 RESIDUE      1      MOL     
@<SCITEGIC>MOL_PROPERTY
VM2 Rank
SciTegic.value.IntegerValue
45

@<SCITEGIC>MOL_PROPERTY
Conf_Id
SciTegic.value.IntegerValue
1347

@<SCITEGIC>MOL_PROPERTY
Probability
SciTegic.value.DoubleValue
0.81

@<SCITEGIC>MOL_PROPERTY
Sum Probability
SciTegic.value.DoubleValue
77.88

@<SCITEGIC>MOL_PROPERTY
Delta G
SciTegic.value.DoubleValue
1.293

@<SCITEGIC>MOL_PROPERTY
G
SciTegic.value.DoubleValue
76.759

@<SCITEGIC>MOL_PROPERTY
E
SciTegic.value.DoubleValue
44.168

@<SCITEGIC>MOL_PROPERTY
-TS
SciTegic.value.DoubleValue
32.591

@<SCITEGIC>MOL_PROPERTY
U+W
SciTegic.value.DoubleValue
22.706

@<SCITEGIC>MOL_PROPERTY
U
SciTegic.value.DoubleValue
72.280

@<SCITEGIC>MOL_PROPERTY
W
SciTegic.value.DoubleValue
-49.574

@<SCITEGIC>MOL_PROPERTY
W(PB)
SciTegic.value.DoubleValue
-51.820

@<SCITEGIC>MOL_PROPERTY
W(SA)
SciTegic.value.DoubleValue
2.246

@<SCITEGIC>MOL_PROPERTY
Valence
SciTegic.value.DoubleValue
2.616

@<SCITEGIC>MOL_PROPERTY
Coulomb
SciTegic.value.DoubleValue
69.198

@<SCITEGIC>MOL_PROPERTY
VdW
SciTegic.value.DoubleValue
0.465

@<SCITEGIC>MOL_PROPERTY
VdW6
SciTegic.value.DoubleValue
-7.468

@<SCITEGIC>MOL_PROPERTY
VdW12
SciTegic.value.DoubleValue
7.934

@<SCITEGIC>MOL_PROPERTY
Bond
SciTegic.value.DoubleValue
0.224

@<SCITEGIC>MOL_PROPERTY
Angle
SciTegic.value.DoubleValue
0.811

@<SCITEGIC>MOL_PROPERTY
Pdih
SciTegic.value.DoubleValue
1.582

@<SCITEGIC>MOL_PROPERTY
Idih
SciTegic.value.DoubleValue
0.000

@<SCITEGIC>MOL_PROPERTY
Tether
SciTegic.value.DoubleValue
0.000

@<TRIPOS>MOLECULE
guest-s12_vm2.mol2 : vm2 ligand conformer 46
          26          25           1
SMALL
USER_CHARGES
 
@<TRIPOS>ATOM
       1    N1      19.780009   18.475853   26.047969 N.4        1 MOL1        -0.4857
       2    H1      20.669349   17.977688   26.208394 H          1 MOL1         0.3650
       3    H2      19.107093   17.749765   25.756877 H          1 MOL1         0.3650
       4    C1      19.948145   19.504589   24.947847 C.3        1 MOL1         0.0209
       5    H3      20.672135   20.247639   25.291637 H          1 MOL1         0.0967
       6    H4      18.985766   20.002241   24.804149 H          1 MOL1         0.0967
       7    C2      20.421660   18.898321   23.614440 C.3        1 MOL1        -0.1378
       8    H5      21.380822   18.385752   23.766314 H          1 MOL1         0.0993
       9    H6      19.696992   18.141428   23.288684 H          1 MOL1         0.0993
      10    C3      20.579070   19.985788   22.525812 C.3        1 MOL1        -0.1338
      11    H7      21.246846   20.773146   22.902291 H          1 MOL1         0.0993
      12    H8      19.611646   20.472977   22.344714 H          1 MOL1         0.0993
      13    C4      21.160234   19.449599   21.191699 C.3        1 MOL1        -0.1338
      14    H9      21.275659   20.290928   20.494500 H          1 MOL1         0.0993
      15    H10     22.174807   19.068127   21.371618 H          1 MOL1         0.0993
      16    C5      20.324661   18.340090   20.503119 C.3        1 MOL1        -0.1313
      17    H11     20.298356   17.439268   21.130746 H          1 MOL1         0.0993
      18    H12     20.834335   18.043874   19.575611 H          1 MOL1         0.0993
      19    C6      18.883065   18.779187   20.159621 C.3        1 MOL1        -0.2328
      20    H13     18.294877   18.973164   21.065163 H          1 MOL1         0.1004
      21    H14     18.366662   17.993894   19.592614 H          1 MOL1         0.1004
      22    H15     18.883297   19.690290   19.547387 H          1 MOL1         0.1004
      23    C7      19.311156   19.156574   27.326494 C.3        1 MOL1        -0.0781
      24    H16     20.054067   19.896355   27.632712 H          1 MOL1         0.0978
      25    H17     18.353638   19.648301   27.141232 H          1 MOL1         0.0978
      26    H18     19.194244   18.404912   28.110382 H          1 MOL1         0.0978
@<TRIPOS>BOND
    1     1     2    1
    2     1     3    1
    3     1     4    1
    4     4     5    1
    5     4     6    1
    6     4     7    1
    7     7     8    1
    8     7     9    1
    9     7    10    1
   10    10    11    1
   11    10    12    1
   12    10    13    1
   13    13    14    1
   14    13    15    1
   15    13    16    1
   16    16    17    1
   17    16    18    1
   18    16    19    1
   19    19    20    1
   20    19    21    1
   21    19    22    1
   22     1    23    1
   23    23    24    1
   24    23    25    1
   25    23    26    1
@<TRIPOS>SUBSTRUCTURE
       1 MOL1            1 RESIDUE      1      MOL     
@<SCITEGIC>MOL_PROPERTY
VM2 Rank
SciTegic.value.IntegerValue
46

@<SCITEGIC>MOL_PROPERTY
Conf_Id
SciTegic.value.IntegerValue
1231

@<SCITEGIC>MOL_PROPERTY
Probability
SciTegic.value.DoubleValue
0.79

@<SCITEGIC>MOL_PROPERTY
Sum Probability
SciTegic.value.DoubleValue
78.67

@<SCITEGIC>MOL_PROPERTY
Delta G
SciTegic.value.DoubleValue
1.313

@<SCITEGIC>MOL_PROPERTY
G
SciTegic.value.DoubleValue
76.779

@<SCITEGIC>MOL_PROPERTY
E
SciTegic.value.DoubleValue
44.190

@<SCITEGIC>MOL_PROPERTY
-TS
SciTegic.value.DoubleValue
32.588

@<SCITEGIC>MOL_PROPERTY
U+W
SciTegic.value.DoubleValue
22.729

@<SCITEGIC>MOL_PROPERTY
U
SciTegic.value.DoubleValue
71.870

@<SCITEGIC>MOL_PROPERTY
W
SciTegic.value.DoubleValue
-49.141

@<SCITEGIC>MOL_PROPERTY
W(PB)
SciTegic.value.DoubleValue
-51.404

@<SCITEGIC>MOL_PROPERTY
W(SA)
SciTegic.value.DoubleValue
2.262

@<SCITEGIC>MOL_PROPERTY
Valence
SciTegic.value.DoubleValue
2.682

@<SCITEGIC>MOL_PROPERTY
Coulomb
SciTegic.value.DoubleValue
68.933

@<SCITEGIC>MOL_PROPERTY
VdW
SciTegic.value.DoubleValue
0.255

@<SCITEGIC>MOL_PROPERTY
VdW6
SciTegic.value.DoubleValue
-6.832

@<SCITEGIC>MOL_PROPERTY
VdW12
SciTegic.value.DoubleValue
7.087

@<SCITEGIC>MOL_PROPERTY
Bond
SciTegic.value.DoubleValue
0.205

@<SCITEGIC>MOL_PROPERTY
Angle
SciTegic.value.DoubleValue
1.003

@<SCITEGIC>MOL_PROPERTY
Pdih
SciTegic.value.DoubleValue
1.473

@<SCITEGIC>MOL_PROPERTY
Idih
SciTegic.value.DoubleValue
0.000

@<SCITEGIC>MOL_PROPERTY
Tether
SciTegic.value.DoubleValue
0.000

@<TRIPOS>MOLECULE
guest-s12_vm2.mol2 : vm2 ligand conformer 47
          26          25           1
SMALL
USER_CHARGES
 
@<TRIPOS>ATOM
       1    N1      19.673435   18.475467   26.251104 N.4        1 MOL1        -0.4857
       2    H1      20.516083   18.009791   26.621949 H          1 MOL1         0.3650
       3    H2      18.882502   17.907358   26.594003 H          1 MOL1         0.3650
       4    C1      19.690138   18.459964   24.731866 C.3        1 MOL1         0.0209
       5    H3      18.804951   18.996630   24.382360 H          1 MOL1         0.0967
       6    H4      19.601906   17.417282   24.416233 H          1 MOL1         0.0967
       7    C2      20.959750   19.068994   24.099640 C.3        1 MOL1        -0.1378
       8    H5      21.045564   20.127961   24.375358 H          1 MOL1         0.0993
       9    H6      21.843302   18.564357   24.512235 H          1 MOL1         0.0993
      10    C3      20.977965   18.935341   22.558705 C.3        1 MOL1        -0.1338
      11    H7      20.931879   17.871612   22.290041 H          1 MOL1         0.0993
      12    H8      21.939761   19.310895   22.183071 H          1 MOL1         0.0993
      13    C4      19.824236   19.708873   21.871319 C.3        1 MOL1        -0.1338
      14    H9      18.855751   19.280947   22.163033 H          1 MOL1         0.0993
      15    H10     19.824625   20.747477   22.230004 H          1 MOL1         0.0993
      16    C5      19.928932   19.722644   20.327015 C.3        1 MOL1        -0.1313
      17    H11     20.882470   20.176514   20.022738 H          1 MOL1         0.0993
      18    H12     19.138226   20.371810   19.925461 H          1 MOL1         0.0993
      19    C6      19.793974   18.320577   19.690335 C.3        1 MOL1        -0.2328
      20    H13     20.630878   17.668586   19.969552 H          1 MOL1         0.1004
      21    H14     19.785546   18.395154   18.595215 H          1 MOL1         0.1004
      22    H15     18.860114   17.834036   20.000451 H          1 MOL1         0.1004
      23    C7      19.559570   19.898139   26.787016 C.3        1 MOL1        -0.0781
      24    H16     18.650471   20.358059   26.393517 H          1 MOL1         0.0978
      25    H17     19.514146   19.866248   27.877889 H          1 MOL1         0.0978
      26    H18     20.432386   20.474014   26.472989 H          1 MOL1         0.0978
@<TRIPOS>BOND
    1     1     2    1
    2     1     3    1
    3     1     4    1
    4     4     5    1
    5     4     6    1
    6     4     7    1
    7     7     8    1
    8     7     9    1
    9     7    10    1
   10    10    11    1
   11    10    12    1
   12    10    13    1
   13    13    14    1
   14    13    15    1
   15    13    16    1
   16    16    17    1
   17    16    18    1
   18    16    19    1
   19    19    20    1
   20    19    21    1
   21    19    22    1
   22     1    23    1
   23    23    24    1
   24    23    25    1
   25    23    26    1
@<TRIPOS>SUBSTRUCTURE
       1 MOL1            1 RESIDUE      1      MOL     
@<SCITEGIC>MOL_PROPERTY
VM2 Rank
SciTegic.value.IntegerValue
47

@<SCITEGIC>MOL_PROPERTY
Conf_Id
SciTegic.value.IntegerValue
175

@<SCITEGIC>MOL_PROPERTY
Probability
SciTegic.value.DoubleValue
0.78

@<SCITEGIC>MOL_PROPERTY
Sum Probability
SciTegic.value.DoubleValue
79.45

@<SCITEGIC>MOL_PROPERTY
Delta G
SciTegic.value.DoubleValue
1.315

@<SCITEGIC>MOL_PROPERTY
G
SciTegic.value.DoubleValue
76.781

@<SCITEGIC>MOL_PROPERTY
E
SciTegic.value.DoubleValue
44.237

@<SCITEGIC>MOL_PROPERTY
-TS
SciTegic.value.DoubleValue
32.544

@<SCITEGIC>MOL_PROPERTY
U+W
SciTegic.value.DoubleValue
22.775

@<SCITEGIC>MOL_PROPERTY
U
SciTegic.value.DoubleValue
72.114

@<SCITEGIC>MOL_PROPERTY
W
SciTegic.value.DoubleValue
-49.339

@<SCITEGIC>MOL_PROPERTY
W(PB)
SciTegic.value.DoubleValue
-51.571

@<SCITEGIC>MOL_PROPERTY
W(SA)
SciTegic.value.DoubleValue
2.232

@<SCITEGIC>MOL_PROPERTY
Valence
SciTegic.value.DoubleValue
2.783

@<SCITEGIC>MOL_PROPERTY
Coulomb
SciTegic.value.DoubleValue
68.782

@<SCITEGIC>MOL_PROPERTY
VdW
SciTegic.value.DoubleValue
0.549

@<SCITEGIC>MOL_PROPERTY
VdW6
SciTegic.value.DoubleValue
-7.241

@<SCITEGIC>MOL_PROPERTY
VdW12
SciTegic.value.DoubleValue
7.790

@<SCITEGIC>MOL_PROPERTY
Bond
SciTegic.value.DoubleValue
0.221

@<SCITEGIC>MOL_PROPERTY
Angle
SciTegic.value.DoubleValue
0.803

@<SCITEGIC>MOL_PROPERTY
Pdih
SciTegic.value.DoubleValue
1.759

@<SCITEGIC>MOL_PROPERTY
Idih
SciTegic.value.DoubleValue
0.000

@<SCITEGIC>MOL_PROPERTY
Tether
SciTegic.value.DoubleValue
0.000

@<TRIPOS>MOLECULE
guest-s12_vm2.mol2 : vm2 ligand conformer 48
          26          25           1
SMALL
USER_CHARGES
 
@<TRIPOS>ATOM
       1    N1      20.243049   18.522965   26.064248 N.4        1 MOL1        -0.4857
       2    H1      21.067210   17.949529   25.826166 H          1 MOL1         0.3650
       3    H2      19.463359   17.854631   26.165437 H          1 MOL1         0.3650
       4    C1      19.948542   19.504646   24.947824 C.3        1 MOL1         0.0209
       5    H3      20.798596   20.186973   24.868339 H          1 MOL1         0.0967
       6    H4      19.067463   20.084129   25.234833 H          1 MOL1         0.0967
       7    C2      19.701372   18.825035   23.588858 C.3        1 MOL1        -0.1378
       8    H5      20.584589   18.231893   23.320054 H          1 MOL1         0.0993
       9    H6      18.856817   18.128777   23.676805 H          1 MOL1         0.0993
      10    C3      19.404892   19.866309   22.484177 C.3        1 MOL1        -0.1338
      11    H7      20.264664   20.539602   22.367866 H          1 MOL1         0.0993
      12    H8      18.567543   20.500358   22.807323 H          1 MOL1         0.0993
      13    C4      19.038558   19.233665   21.116452 C.3        1 MOL1        -0.1338
      14    H9      18.111435   18.654560   21.227484 H          1 MOL1         0.0993
      15    H10     18.805386   20.039509   20.406880 H          1 MOL1         0.0993
      16    C5      20.126502   18.319933   20.496124 C.3        1 MOL1        -0.1313
      17    H11     19.753261   17.933941   19.537227 H          1 MOL1         0.0993
      18    H12     20.289346   17.438313   21.130408 H          1 MOL1         0.0993
      19    C6      21.470782   19.042523   20.251644 C.3        1 MOL1        -0.2328
      20    H13     21.942819   19.344348   21.194872 H          1 MOL1         0.1004
      21    H14     21.330276   19.939330   19.634445 H          1 MOL1         0.1004
      22    H15     22.173142   18.381263   19.727926 H          1 MOL1         0.1004
      23    C7      20.474302   19.274924   27.367673 C.3        1 MOL1        -0.0781
      24    H16     19.577906   19.847486   27.615883 H          1 MOL1         0.0978
      25    H17     20.685161   18.556589   28.163082 H          1 MOL1         0.0978
      26    H18     21.323589   19.950935   27.246516 H          1 MOL1         0.0978
@<TRIPOS>BOND
    1     1     2    1
    2     1     3    1
    3     1     4    1
    4     4     5    1
    5     4     6    1
    6     4     7    1
    7     7     8    1
    8     7     9    1
    9     7    10    1
   10    10    11    1
   11    10    12    1
   12    10    13    1
   13    13    14    1
   14    13    15    1
   15    13    16    1
   16    16    17    1
   17    16    18    1
   18    16    19    1
   19    19    20    1
   20    19    21    1
   21    19    22    1
   22     1    23    1
   23    23    24    1
   24    23    25    1
   25    23    26    1
@<TRIPOS>SUBSTRUCTURE
       1 MOL1            1 RESIDUE      1      MOL     
@<SCITEGIC>MOL_PROPERTY
VM2 Rank
SciTegic.value.IntegerValue
48

@<SCITEGIC>MOL_PROPERTY
Conf_Id
SciTegic.value.IntegerValue
1070

@<SCITEGIC>MOL_PROPERTY
Probability
SciTegic.value.DoubleValue
0.76

@<SCITEGIC>MOL_PROPERTY
Sum Probability
SciTegic.value.DoubleValue
80.21

@<SCITEGIC>MOL_PROPERTY
Delta G
SciTegic.value.DoubleValue
1.336

@<SCITEGIC>MOL_PROPERTY
G
SciTegic.value.DoubleValue
76.802

@<SCITEGIC>MOL_PROPERTY
E
SciTegic.value.DoubleValue
44.213

@<SCITEGIC>MOL_PROPERTY
-TS
SciTegic.value.DoubleValue
32.589

@<SCITEGIC>MOL_PROPERTY
U+W
SciTegic.value.DoubleValue
22.751

@<SCITEGIC>MOL_PROPERTY
U
SciTegic.value.DoubleValue
71.870

@<SCITEGIC>MOL_PROPERTY
W
SciTegic.value.DoubleValue
-49.119

@<SCITEGIC>MOL_PROPERTY
W(PB)
SciTegic.value.DoubleValue
-51.409

@<SCITEGIC>MOL_PROPERTY
W(SA)
SciTegic.value.DoubleValue
2.290

@<SCITEGIC>MOL_PROPERTY
Valence
SciTegic.value.DoubleValue
2.682

@<SCITEGIC>MOL_PROPERTY
Coulomb
SciTegic.value.DoubleValue
68.933

@<SCITEGIC>MOL_PROPERTY
VdW
SciTegic.value.DoubleValue
0.255

@<SCITEGIC>MOL_PROPERTY
VdW6
SciTegic.value.DoubleValue
-6.833

@<SCITEGIC>MOL_PROPERTY
VdW12
SciTegic.value.DoubleValue
7.088

@<SCITEGIC>MOL_PROPERTY
Bond
SciTegic.value.DoubleValue
0.205

@<SCITEGIC>MOL_PROPERTY
Angle
SciTegic.value.DoubleValue
1.003

@<SCITEGIC>MOL_PROPERTY
Pdih
SciTegic.value.DoubleValue
1.473

@<SCITEGIC>MOL_PROPERTY
Idih
SciTegic.value.DoubleValue
0.000

@<SCITEGIC>MOL_PROPERTY
Tether
SciTegic.value.DoubleValue
0.000

@<TRIPOS>MOLECULE
guest-s12_vm2.mol2 : vm2 ligand conformer 49
          26          25           1
SMALL
USER_CHARGES
 
@<TRIPOS>ATOM
       1    N1      19.426211   19.085488   26.142423 N.4        1 MOL1        -0.4857
       2    H1      18.769705   18.409904   25.723809 H          1 MOL1         0.3650
       3    H2      18.919686   19.487383   26.947272 H          1 MOL1         0.3650
       4    C1      19.751335   20.186598   25.144852 C.3        1 MOL1         0.0209
       5    H3      20.453538   20.871150   25.627344 H          1 MOL1         0.0967
       6    H4      18.826301   20.735884   24.951944 H          1 MOL1         0.0967
       7    C2      20.340492   19.708523   23.799368 C.3        1 MOL1        -0.1378
       8    H5      20.572333   20.597783   23.200625 H          1 MOL1         0.0993
       9    H6      21.294466   19.194156   23.972491 H          1 MOL1         0.0993
      10    C3      19.373868   18.784811   23.016120 C.3        1 MOL1        -0.1338
      11    H7      18.430159   19.313665   22.823346 H          1 MOL1         0.0993
      12    H8      19.119943   17.915285   23.636658 H          1 MOL1         0.0993
      13    C4      19.960097   18.265871   21.679744 C.3        1 MOL1        -0.1338
      14    H9      20.900763   17.731789   21.872698 H          1 MOL1         0.0993
      15    H10     19.265966   17.524058   21.261012 H          1 MOL1         0.0993
      16    C5      20.196882   19.378254   20.630508 C.3        1 MOL1        -0.1313
      17    H11     20.951086   20.088947   20.993279 H          1 MOL1         0.0993
      18    H12     19.269563   19.947835   20.477430 H          1 MOL1         0.0993
      19    C6      20.667836   18.796271   19.280485 C.3        1 MOL1        -0.2328
      20    H13     21.610234   18.245057   19.395605 H          1 MOL1         0.1004
      21    H14     20.833904   19.598125   18.549410 H          1 MOL1         0.1004
      22    H15     19.919375   18.110246   18.862919 H          1 MOL1         0.1004
      23    C7      20.691280   18.384183   26.623501 C.3        1 MOL1        -0.0781
      24    H16     21.359063   19.120032   27.076687 H          1 MOL1         0.0978
      25    H17     20.420922   17.626865   27.362701 H          1 MOL1         0.0978
      26    H18     21.185378   17.908133   25.774147 H          1 MOL1         0.0978
@<TRIPOS>BOND
    1     1     2    1
    2     1     3    1
    3     1     4    1
    4     4     5    1
    5     4     6    1
    6     4     7    1
    7     7     8    1
    8     7     9    1
    9     7    10    1
   10    10    11    1
   11    10    12    1
   12    10    13    1
   13    13    14    1
   14    13    15    1
   15    13    16    1
   16    16    17    1
   17    16    18    1
   18    16    19    1
   19    19    20    1
   20    19    21    1
   21    19    22    1
   22     1    23    1
   23    23    24    1
   24    23    25    1
   25    23    26    1
@<TRIPOS>SUBSTRUCTURE
       1 MOL1            1 RESIDUE      1      MOL     
@<SCITEGIC>MOL_PROPERTY
VM2 Rank
SciTegic.value.IntegerValue
49

@<SCITEGIC>MOL_PROPERTY
Conf_Id
SciTegic.value.IntegerValue
283

@<SCITEGIC>MOL_PROPERTY
Probability
SciTegic.value.DoubleValue
0.76

@<SCITEGIC>MOL_PROPERTY
Sum Probability
SciTegic.value.DoubleValue
80.97

@<SCITEGIC>MOL_PROPERTY
Delta G
SciTegic.value.DoubleValue
1.337

@<SCITEGIC>MOL_PROPERTY
G
SciTegic.value.DoubleValue
76.803

@<SCITEGIC>MOL_PROPERTY
E
SciTegic.value.DoubleValue
44.254

@<SCITEGIC>MOL_PROPERTY
-TS
SciTegic.value.DoubleValue
32.549

@<SCITEGIC>MOL_PROPERTY
U+W
SciTegic.value.DoubleValue
22.792

@<SCITEGIC>MOL_PROPERTY
U
SciTegic.value.DoubleValue
72.239

@<SCITEGIC>MOL_PROPERTY
W
SciTegic.value.DoubleValue
-49.447

@<SCITEGIC>MOL_PROPERTY
W(PB)
SciTegic.value.DoubleValue
-51.685

@<SCITEGIC>MOL_PROPERTY
W(SA)
SciTegic.value.DoubleValue
2.238

@<SCITEGIC>MOL_PROPERTY
Valence
SciTegic.value.DoubleValue
2.658

@<SCITEGIC>MOL_PROPERTY
Coulomb
SciTegic.value.DoubleValue
69.025

@<SCITEGIC>MOL_PROPERTY
VdW
SciTegic.value.DoubleValue
0.556

@<SCITEGIC>MOL_PROPERTY
VdW6
SciTegic.value.DoubleValue
-7.358

@<SCITEGIC>MOL_PROPERTY
VdW12
SciTegic.value.DoubleValue
7.914

@<SCITEGIC>MOL_PROPERTY
Bond
SciTegic.value.DoubleValue
0.229

@<SCITEGIC>MOL_PROPERTY
Angle
SciTegic.value.DoubleValue
0.883

@<SCITEGIC>MOL_PROPERTY
Pdih
SciTegic.value.DoubleValue
1.546

@<SCITEGIC>MOL_PROPERTY
Idih
SciTegic.value.DoubleValue
0.000

@<SCITEGIC>MOL_PROPERTY
Tether
SciTegic.value.DoubleValue
0.000

@<TRIPOS>MOLECULE
guest-s12_vm2.mol2 : vm2 ligand conformer 50
          26          25           1
SMALL
USER_CHARGES
 
@<TRIPOS>ATOM
       1    N1      20.347992   18.896150   26.077147 N.4        1 MOL1        -0.4857
       2    H1      21.012381   18.277522   26.568787 H          1 MOL1         0.3650
       3    H2      19.492588   18.879912   26.653679 H          1 MOL1         0.3650
       4    C1      20.060469   18.337092   24.694088 C.3        1 MOL1         0.0209
       5    H3      19.824453   17.276610   24.813386 H          1 MOL1         0.0967
       6    H4      20.976965   18.417066   24.104574 H          1 MOL1         0.0967
       7    C2      18.896856   19.029164   23.953139 C.3        1 MOL1        -0.1378
       8    H5      17.996655   18.985852   24.580221 H          1 MOL1         0.0993
       9    H6      19.120390   20.093616   23.811528 H          1 MOL1         0.0993
      10    C3      18.585795   18.372249   22.585162 C.3        1 MOL1        -0.1338
      11    H7      17.752994   18.910787   22.112194 H          1 MOL1         0.0993
      12    H8      18.224697   17.348565   22.755882 H          1 MOL1         0.0993
      13    C4      19.782316   18.319667   21.599736 C.3        1 MOL1        -0.1338
      14    H9      20.581257   17.688878   22.012091 H          1 MOL1         0.0993
      15    H10     19.449937   17.821382   20.678534 H          1 MOL1         0.0993
      16    C5      20.351593   19.712738   21.240534 C.3        1 MOL1        -0.1313
      17    H11     20.760300   20.197793   22.137074 H          1 MOL1         0.0993
      18    H12     19.544297   20.358777   20.868176 H          1 MOL1         0.0993
      19    C6      21.463216   19.616026   20.173938 C.3        1 MOL1        -0.2328
      20    H13     21.082385   19.171670   19.245127 H          1 MOL1         0.1004
      21    H14     22.299261   19.000009   20.529936 H          1 MOL1         0.1004
      22    H15     21.857332   20.611915   19.933361 H          1 MOL1         0.1004
      23    C7      20.919762   20.306914   25.993257 C.3        1 MOL1        -0.0781
      24    H16     21.148132   20.660086   27.001325 H          1 MOL1         0.0978
      25    H17     21.832287   20.289055   25.393417 H          1 MOL1         0.0978
      26    H18     20.184680   20.968520   25.530743 H          1 MOL1         0.0978
@<TRIPOS>BOND
    1     1     2    1
    2     1     3    1
    3     1     4    1
    4     4     5    1
    5     4     6    1
    6     4     7    1
    7     7     8    1
    8     7     9    1
    9     7    10    1
   10    10    11    1
   11    10    12    1
   12    10    13    1
   13    13    14    1
   14    13    15    1
   15    13    16    1
   16    16    17    1
   17    16    18    1
   18    16    19    1
   19    19    20    1
   20    19    21    1
   21    19    22    1
   22     1    23    1
   23    23    24    1
   24    23    25    1
   25    23    26    1
@<TRIPOS>SUBSTRUCTURE
       1 MOL1            1 RESIDUE      1      MOL     
@<SCITEGIC>MOL_PROPERTY
VM2 Rank
SciTegic.value.IntegerValue
50

@<SCITEGIC>MOL_PROPERTY
Conf_Id
SciTegic.value.IntegerValue
1065

@<SCITEGIC>MOL_PROPERTY
Probability
SciTegic.value.DoubleValue
0.75

@<SCITEGIC>MOL_PROPERTY
Sum Probability
SciTegic.value.DoubleValue
81.71

@<SCITEGIC>MOL_PROPERTY
Delta G
SciTegic.value.DoubleValue
1.345

@<SCITEGIC>MOL_PROPERTY
G
SciTegic.value.DoubleValue
76.811

@<SCITEGIC>MOL_PROPERTY
E
SciTegic.value.DoubleValue
44.141

@<SCITEGIC>MOL_PROPERTY
-TS
SciTegic.value.DoubleValue
32.669

@<SCITEGIC>MOL_PROPERTY
U+W
SciTegic.value.DoubleValue
22.679

@<SCITEGIC>MOL_PROPERTY
U
SciTegic.value.DoubleValue
72.352

@<SCITEGIC>MOL_PROPERTY
W
SciTegic.value.DoubleValue
-49.672

@<SCITEGIC>MOL_PROPERTY
W(PB)
SciTegic.value.DoubleValue
-51.909

@<SCITEGIC>MOL_PROPERTY
W(SA)
SciTegic.value.DoubleValue
2.237

@<SCITEGIC>MOL_PROPERTY
Valence
SciTegic.value.DoubleValue
2.742

@<SCITEGIC>MOL_PROPERTY
Coulomb
SciTegic.value.DoubleValue
69.271

@<SCITEGIC>MOL_PROPERTY
VdW
SciTegic.value.DoubleValue
0.339

@<SCITEGIC>MOL_PROPERTY
VdW6
SciTegic.value.DoubleValue
-7.703

@<SCITEGIC>MOL_PROPERTY
VdW12
SciTegic.value.DoubleValue
8.042

@<SCITEGIC>MOL_PROPERTY
Bond
SciTegic.value.DoubleValue
0.229

@<SCITEGIC>MOL_PROPERTY
Angle
SciTegic.value.DoubleValue
0.954

@<SCITEGIC>MOL_PROPERTY
Pdih
SciTegic.value.DoubleValue
1.560

@<SCITEGIC>MOL_PROPERTY
Idih
SciTegic.value.DoubleValue
0.000

@<SCITEGIC>MOL_PROPERTY
Tether
SciTegic.value.DoubleValue
0.000

@<TRIPOS>MOLECULE
guest-s12_vm2.mol2 : vm2 ligand conformer 51
          26          25           1
SMALL
USER_CHARGES
 
@<TRIPOS>ATOM
       1    N1      19.601929   18.819135   26.050848 N.4        1 MOL1        -0.4857
       2    H1      20.400351   18.972537   26.685953 H          1 MOL1         0.3650
       3    H2      19.044257   18.074824   26.498984 H          1 MOL1         0.3650
       4    C1      20.092984   18.340518   24.695168 C.3        1 MOL1         0.0209
       5    H3      19.222839   18.236923   24.042476 H          1 MOL1         0.0967
       6    H4      20.530719   17.349288   24.838022 H          1 MOL1         0.0967
       7    C2      21.140471   19.260151   24.032591 C.3        1 MOL1        -0.1378
       8    H5      20.715528   20.257848   23.867961 H          1 MOL1         0.0993
       9    H6      21.984452   19.396389   24.721509 H          1 MOL1         0.0993
      10    C3      21.673764   18.690100   22.694570 C.3        1 MOL1        -0.1338
      11    H7      22.222680   17.760080   22.897594 H          1 MOL1         0.0993
      12    H8      22.410663   19.390171   22.277244 H          1 MOL1         0.0993
      13    C4      20.585039   18.402275   21.628115 C.3        1 MOL1        -0.1338
      14    H9      21.075555   17.988518   20.736164 H          1 MOL1         0.0993
      15    H10     19.904144   17.619303   21.988081 H          1 MOL1         0.0993
      16    C5      19.771017   19.652985   21.219658 C.3        1 MOL1        -0.1313
      17    H11     20.454166   20.452291   20.900035 H          1 MOL1         0.0993
      18    H12     19.210403   20.038464   22.081762 H          1 MOL1         0.0993
      19    C6      18.779848   19.339785   20.078529 C.3        1 MOL1        -0.2328
      20    H13     18.209348   20.236406   19.803575 H          1 MOL1         0.1004
      21    H14     18.063648   18.564163   20.379608 H          1 MOL1         0.1004
      22    H15     19.307226   18.988682   19.181993 H          1 MOL1         0.1004
      23    C7      18.762947   20.085050   25.917521 C.3        1 MOL1        -0.0781
      24    H16     17.917331   19.886890   25.255333 H          1 MOL1         0.0978
      25    H17     18.397637   20.376829   26.904687 H          1 MOL1         0.0978
      26    H18     19.378939   20.885597   25.503194 H          1 MOL1         0.0978
@<TRIPOS>BOND
    1     1     2    1
    2     1     3    1
    3     1     4    1
    4     4     5    1
    5     4     6    1
    6     4     7    1
    7     7     8    1
    8     7     9    1
    9     7    10    1
   10    10    11    1
   11    10    12    1
   12    10    13    1
   13    13    14    1
   14    13    15    1
   15    13    16    1
   16    16    17    1
   17    16    18    1
   18    16    19    1
   19    19    20    1
   20    19    21    1
   21    19    22    1
   22     1    23    1
   23    23    24    1
   24    23    25    1
   25    23    26    1
@<TRIPOS>SUBSTRUCTURE
       1 MOL1            1 RESIDUE      1      MOL     
@<SCITEGIC>MOL_PROPERTY
VM2 Rank
SciTegic.value.IntegerValue
51

@<SCITEGIC>MOL_PROPERTY
Conf_Id
SciTegic.value.IntegerValue
1085

@<SCITEGIC>MOL_PROPERTY
Probability
SciTegic.value.DoubleValue
0.74

@<SCITEGIC>MOL_PROPERTY
Sum Probability
SciTegic.value.DoubleValue
82.45

@<SCITEGIC>MOL_PROPERTY
Delta G
SciTegic.value.DoubleValue
1.347

@<SCITEGIC>MOL_PROPERTY
G
SciTegic.value.DoubleValue
76.813

@<SCITEGIC>MOL_PROPERTY
E
SciTegic.value.DoubleValue
44.144

@<SCITEGIC>MOL_PROPERTY
-TS
SciTegic.value.DoubleValue
32.669

@<SCITEGIC>MOL_PROPERTY
U+W
SciTegic.value.DoubleValue
22.682

@<SCITEGIC>MOL_PROPERTY
U
SciTegic.value.DoubleValue
72.352

@<SCITEGIC>MOL_PROPERTY
W
SciTegic.value.DoubleValue
-49.670

@<SCITEGIC>MOL_PROPERTY
W(PB)
SciTegic.value.DoubleValue
-51.904

@<SCITEGIC>MOL_PROPERTY
W(SA)
SciTegic.value.DoubleValue
2.234

@<SCITEGIC>MOL_PROPERTY
Valence
SciTegic.value.DoubleValue
2.742

@<SCITEGIC>MOL_PROPERTY
Coulomb
SciTegic.value.DoubleValue
69.270

@<SCITEGIC>MOL_PROPERTY
VdW
SciTegic.value.DoubleValue
0.339

@<SCITEGIC>MOL_PROPERTY
VdW6
SciTegic.value.DoubleValue
-7.702

@<SCITEGIC>MOL_PROPERTY
VdW12
SciTegic.value.DoubleValue
8.042

@<SCITEGIC>MOL_PROPERTY
Bond
SciTegic.value.DoubleValue
0.229

@<SCITEGIC>MOL_PROPERTY
Angle
SciTegic.value.DoubleValue
0.954

@<SCITEGIC>MOL_PROPERTY
Pdih
SciTegic.value.DoubleValue
1.560

@<SCITEGIC>MOL_PROPERTY
Idih
SciTegic.value.DoubleValue
0.000

@<SCITEGIC>MOL_PROPERTY
Tether
SciTegic.value.DoubleValue
0.000

@<TRIPOS>MOLECULE
guest-s12_vm2.mol2 : vm2 ligand conformer 52
          26          25           1
SMALL
USER_CHARGES
 
@<TRIPOS>ATOM
       1    N1      20.459090   19.190126   26.179098 N.4        1 MOL1        -0.4857
       2    H1      20.816809   19.679558   27.014779 H          1 MOL1         0.3650
       3    H2      21.265538   18.662977   25.812483 H          1 MOL1         0.3650
       4    C1      19.990784   20.210913   25.153436 C.3        1 MOL1         0.0209
       5    H3      20.798179   20.935825   25.022157 H          1 MOL1         0.0967
       6    H4      19.133510   20.737343   25.580581 H          1 MOL1         0.0967
       7    C2      19.605372   19.634206   23.773268 C.3        1 MOL1        -0.1378
       8    H5      18.764092   18.937847   23.882554 H          1 MOL1         0.0993
       9    H6      19.242628   20.463268   23.153512 H          1 MOL1         0.0993
      10    C3      20.790066   18.928663   23.066302 C.3        1 MOL1        -0.1338
      11    H7      21.169139   18.123405   23.709331 H          1 MOL1         0.0993
      12    H8      21.619656   19.637402   22.936287 H          1 MOL1         0.0993
      13    C4      20.414906   18.312068   21.695923 C.3        1 MOL1        -0.1338
      14    H9      21.271374   17.727675   21.332068 H          1 MOL1         0.0993
      15    H10     19.589454   17.598675   21.826415 H          1 MOL1         0.0993
      16    C5      20.033611   19.361649   20.624778 C.3        1 MOL1        -0.1313
      17    H11     20.836159   20.106782   20.532752 H          1 MOL1         0.0993
      18    H12     19.128678   19.903978   20.928898 H          1 MOL1         0.0993
      19    C6      19.784464   18.706479   19.249375 C.3        1 MOL1        -0.2328
      20    H13     20.682658   18.187557   18.889995 H          1 MOL1         0.1004
      21    H14     19.512314   19.463803   18.502773 H          1 MOL1         0.1004
      22    H15     18.966161   17.976564   19.302372 H          1 MOL1         0.1004
      23    C7      19.329707   18.245896   26.574819 C.3        1 MOL1        -0.0781
      24    H16     19.002213   17.686553   25.696159 H          1 MOL1         0.0978
      25    H17     19.693708   17.552883   27.336578 H          1 MOL1         0.0978
      26    H18     18.497673   18.829572   26.974604 H          1 MOL1         0.0978
@<TRIPOS>BOND
    1     1     2    1
    2     1     3    1
    3     1     4    1
    4     4     5    1
    5     4     6    1
    6     4     7    1
    7     7     8    1
    8     7     9    1
    9     7    10    1
   10    10    11    1
   11    10    12    1
   12    10    13    1
   13    13    14    1
   14    13    15    1
   15    13    16    1
   16    16    17    1
   17    16    18    1
   18    16    19    1
   19    19    20    1
   20    19    21    1
   21    19    22    1
   22     1    23    1
   23    23    24    1
   24    23    25    1
   25    23    26    1
@<TRIPOS>SUBSTRUCTURE
       1 MOL1            1 RESIDUE      1      MOL     
@<SCITEGIC>MOL_PROPERTY
VM2 Rank
SciTegic.value.IntegerValue
52

@<SCITEGIC>MOL_PROPERTY
Conf_Id
SciTegic.value.IntegerValue
1266

@<SCITEGIC>MOL_PROPERTY
Probability
SciTegic.value.DoubleValue
0.74

@<SCITEGIC>MOL_PROPERTY
Sum Probability
SciTegic.value.DoubleValue
83.19

@<SCITEGIC>MOL_PROPERTY
Delta G
SciTegic.value.DoubleValue
1.351

@<SCITEGIC>MOL_PROPERTY
G
SciTegic.value.DoubleValue
76.817

@<SCITEGIC>MOL_PROPERTY
E
SciTegic.value.DoubleValue
44.268

@<SCITEGIC>MOL_PROPERTY
-TS
SciTegic.value.DoubleValue
32.549

@<SCITEGIC>MOL_PROPERTY
U+W
SciTegic.value.DoubleValue
22.806

@<SCITEGIC>MOL_PROPERTY
U
SciTegic.value.DoubleValue
72.239

@<SCITEGIC>MOL_PROPERTY
W
SciTegic.value.DoubleValue
-49.432

@<SCITEGIC>MOL_PROPERTY
W(PB)
SciTegic.value.DoubleValue
-51.686

@<SCITEGIC>MOL_PROPERTY
W(SA)
SciTegic.value.DoubleValue
2.253

@<SCITEGIC>MOL_PROPERTY
Valence
SciTegic.value.DoubleValue
2.658

@<SCITEGIC>MOL_PROPERTY
Coulomb
SciTegic.value.DoubleValue
69.025

@<SCITEGIC>MOL_PROPERTY
VdW
SciTegic.value.DoubleValue
0.556

@<SCITEGIC>MOL_PROPERTY
VdW6
SciTegic.value.DoubleValue
-7.358

@<SCITEGIC>MOL_PROPERTY
VdW12
SciTegic.value.DoubleValue
7.914

@<SCITEGIC>MOL_PROPERTY
Bond
SciTegic.value.DoubleValue
0.230

@<SCITEGIC>MOL_PROPERTY
Angle
SciTegic.value.DoubleValue
0.883

@<SCITEGIC>MOL_PROPERTY
Pdih
SciTegic.value.DoubleValue
1.546

@<SCITEGIC>MOL_PROPERTY
Idih
SciTegic.value.DoubleValue
0.000

@<SCITEGIC>MOL_PROPERTY
Tether
SciTegic.value.DoubleValue
0.000

@<TRIPOS>MOLECULE
guest-s12_vm2.mol2 : vm2 ligand conformer 53
          26          25           1
SMALL
USER_CHARGES
 
@<TRIPOS>ATOM
       1    N1      20.333432   18.543099   26.274573 N.4        1 MOL1        -0.4857
       2    H1      21.196986   18.144478   26.676168 H          1 MOL1         0.3650
       3    H2      19.578642   17.913825   26.588809 H          1 MOL1         0.3650
       4    C1      20.426758   18.535354   24.758052 C.3        1 MOL1         0.0209
       5    H3      20.746103   17.534386   24.456926 H          1 MOL1         0.0967
       6    H4      21.207286   19.242548   24.467581 H          1 MOL1         0.0967
       7    C2      19.107671   18.879314   24.034004 C.3        1 MOL1        -0.1378
       8    H5      18.317833   18.203352   24.387259 H          1 MOL1         0.0993
       9    H6      18.790194   19.896995   24.295404 H          1 MOL1         0.0993
      10    C3      19.224942   18.755801   22.496581 C.3        1 MOL1        -0.1338
      11    H7      18.235817   18.931761   22.051763 H          1 MOL1         0.0993
      12    H8      19.503934   17.725334   22.239431 H          1 MOL1         0.0993
      13    C4      20.243679   19.751594   21.886242 C.3        1 MOL1        -0.1338
      14    H9      20.008299   20.766017   22.236805 H          1 MOL1         0.0993
      15    H10     21.255851   19.526094   22.247961 H          1 MOL1         0.0993
      16    C5      20.246591   19.755299   20.338339 C.3        1 MOL1        -0.1313
      17    H11     20.916100   20.553617   19.988592 H          1 MOL1         0.0993
      18    H12     19.244724   20.009620   19.964977 H          1 MOL1         0.0993
      19    C6      20.705899   18.414035   19.722373 C.3        1 MOL1        -0.2328
      20    H13     21.694713   18.123670   20.100421 H          1 MOL1         0.1004
      21    H14     20.775650   18.496843   18.630036 H          1 MOL1         0.1004
      22    H15     20.000353   17.604543   19.946850 H          1 MOL1         0.1004
      23    C7      20.119029   19.955505   26.806837 C.3        1 MOL1        -0.0781
      24    H16     20.093456   19.925719   27.898414 H          1 MOL1         0.0978
      25    H17     20.941438   20.592776   26.474636 H          1 MOL1         0.0978
      26    H18     19.171860   20.344915   26.428308 H          1 MOL1         0.0978
@<TRIPOS>BOND
    1     1     2    1
    2     1     3    1
    3     1     4    1
    4     4     5    1
    5     4     6    1
    6     4     7    1
    7     7     8    1
    8     7     9    1
    9     7    10    1
   10    10    11    1
   11    10    12    1
   12    10    13    1
   13    13    14    1
   14    13    15    1
   15    13    16    1
   16    16    17    1
   17    16    18    1
   18    16    19    1
   19    19    20    1
   20    19    21    1
   21    19    22    1
   22     1    23    1
   23    23    24    1
   24    23    25    1
   25    23    26    1
@<TRIPOS>SUBSTRUCTURE
       1 MOL1            1 RESIDUE      1      MOL     
@<SCITEGIC>MOL_PROPERTY
VM2 Rank
SciTegic.value.IntegerValue
53

@<SCITEGIC>MOL_PROPERTY
Conf_Id
SciTegic.value.IntegerValue
1072

@<SCITEGIC>MOL_PROPERTY
Probability
SciTegic.value.DoubleValue
0.72

@<SCITEGIC>MOL_PROPERTY
Sum Probability
SciTegic.value.DoubleValue
83.91

@<SCITEGIC>MOL_PROPERTY
Delta G
SciTegic.value.DoubleValue
1.366

@<SCITEGIC>MOL_PROPERTY
G
SciTegic.value.DoubleValue
76.832

@<SCITEGIC>MOL_PROPERTY
E
SciTegic.value.DoubleValue
44.288

@<SCITEGIC>MOL_PROPERTY
-TS
SciTegic.value.DoubleValue
32.544

@<SCITEGIC>MOL_PROPERTY
U+W
SciTegic.value.DoubleValue
22.826

@<SCITEGIC>MOL_PROPERTY
U
SciTegic.value.DoubleValue
72.114

@<SCITEGIC>MOL_PROPERTY
W
SciTegic.value.DoubleValue
-49.288

@<SCITEGIC>MOL_PROPERTY
W(PB)
SciTegic.value.DoubleValue
-51.563

@<SCITEGIC>MOL_PROPERTY
W(SA)
SciTegic.value.DoubleValue
2.275

@<SCITEGIC>MOL_PROPERTY
Valence
SciTegic.value.DoubleValue
2.783

@<SCITEGIC>MOL_PROPERTY
Coulomb
SciTegic.value.DoubleValue
68.782

@<SCITEGIC>MOL_PROPERTY
VdW
SciTegic.value.DoubleValue
0.550

@<SCITEGIC>MOL_PROPERTY
VdW6
SciTegic.value.DoubleValue
-7.241

@<SCITEGIC>MOL_PROPERTY
VdW12
SciTegic.value.DoubleValue
7.791

@<SCITEGIC>MOL_PROPERTY
Bond
SciTegic.value.DoubleValue
0.221

@<SCITEGIC>MOL_PROPERTY
Angle
SciTegic.value.DoubleValue
0.803

@<SCITEGIC>MOL_PROPERTY
Pdih
SciTegic.value.DoubleValue
1.759

@<SCITEGIC>MOL_PROPERTY
Idih
SciTegic.value.DoubleValue
0.000

@<SCITEGIC>MOL_PROPERTY
Tether
SciTegic.value.DoubleValue
0.000

@<TRIPOS>MOLECULE
guest-s12_vm2.mol2 : vm2 ligand conformer 54
          26          25           1
SMALL
USER_CHARGES
 
@<TRIPOS>ATOM
       1    N1      19.819413   18.399554   26.206920 N.4        1 MOL1        -0.4857
       2    H1      20.768655   18.034468   26.380374 H          1 MOL1         0.3650
       3    H2      19.184029   17.645668   26.513281 H          1 MOL1         0.3650
       4    C1      19.619801   18.660908   24.723342 C.3        1 MOL1         0.0209
       5    H3      18.623585   19.089304   24.587903 H          1 MOL1         0.0967
       6    H4      19.643686   17.691499   24.219977 H          1 MOL1         0.0967
       7    C2      20.679713   19.585654   24.087285 C.3        1 MOL1        -0.1378
       8    H5      20.659812   20.562767   24.586712 H          1 MOL1         0.0993
       9    H6      21.681218   19.167949   24.254904 H          1 MOL1         0.0993
      10    C3      20.451841   19.798562   22.572034 C.3        1 MOL1        -0.1338
      11    H7      21.185515   20.529260   22.204606 H          1 MOL1         0.0993
      12    H8      19.461258   20.246705   22.417835 H          1 MOL1         0.0993
      13    C4      20.578776   18.491170   21.749414 C.3        1 MOL1        -0.1338
      14    H9      21.531773   18.002863   21.995762 H          1 MOL1         0.0993
      15    H10     19.786448   17.786264   22.034658 H          1 MOL1         0.0993
      16    C5      20.526164   18.721314   20.219593 C.3        1 MOL1        -0.1313
      17    H11     20.723521   17.766667   19.712067 H          1 MOL1         0.0993
      18    H12     21.334426   19.402040   19.917692 H          1 MOL1         0.0993
      19    C6      19.169233   19.275603   19.728797 C.3        1 MOL1        -0.2328
      20    H13     18.981043   20.283958   20.117737 H          1 MOL1         0.1004
      21    H14     18.341031   18.626138   20.040669 H          1 MOL1         0.1004
      22    H15     19.152964   19.336784   18.632934 H          1 MOL1         0.1004
      23    C7      19.563060   19.657235   27.029616 C.3        1 MOL1        -0.0781
      24    H16     18.546956   20.009541   26.839226 H          1 MOL1         0.0978
      25    H17     19.678411   19.420161   28.089604 H          1 MOL1         0.0978
      26    H18     20.282183   20.428253   26.746102 H          1 MOL1         0.0978
@<TRIPOS>BOND
    1     1     2    1
    2     1     3    1
    3     1     4    1
    4     4     5    1
    5     4     6    1
    6     4     7    1
    7     7     8    1
    8     7     9    1
    9     7    10    1
   10    10    11    1
   11    10    12    1
   12    10    13    1
   13    13    14    1
   14    13    15    1
   15    13    16    1
   16    16    17    1
   17    16    18    1
   18    16    19    1
   19    19    20    1
   20    19    21    1
   21    19    22    1
   22     1    23    1
   23    23    24    1
   24    23    25    1
   25    23    26    1
@<TRIPOS>SUBSTRUCTURE
       1 MOL1            1 RESIDUE      1      MOL     
@<SCITEGIC>MOL_PROPERTY
VM2 Rank
SciTegic.value.IntegerValue
54

@<SCITEGIC>MOL_PROPERTY
Conf_Id
SciTegic.value.IntegerValue
1344

@<SCITEGIC>MOL_PROPERTY
Probability
SciTegic.value.DoubleValue
0.66

@<SCITEGIC>MOL_PROPERTY
Sum Probability
SciTegic.value.DoubleValue
84.57

@<SCITEGIC>MOL_PROPERTY
Delta G
SciTegic.value.DoubleValue
1.415

@<SCITEGIC>MOL_PROPERTY
G
SciTegic.value.DoubleValue
76.881

@<SCITEGIC>MOL_PROPERTY
E
SciTegic.value.DoubleValue
44.332

@<SCITEGIC>MOL_PROPERTY
-TS
SciTegic.value.DoubleValue
32.549

@<SCITEGIC>MOL_PROPERTY
U+W
SciTegic.value.DoubleValue
22.870

@<SCITEGIC>MOL_PROPERTY
U
SciTegic.value.DoubleValue
72.218

@<SCITEGIC>MOL_PROPERTY
W
SciTegic.value.DoubleValue
-49.347

@<SCITEGIC>MOL_PROPERTY
W(PB)
SciTegic.value.DoubleValue
-51.615

@<SCITEGIC>MOL_PROPERTY
W(SA)
SciTegic.value.DoubleValue
2.268

@<SCITEGIC>MOL_PROPERTY
Valence
SciTegic.value.DoubleValue
2.805

@<SCITEGIC>MOL_PROPERTY
Coulomb
SciTegic.value.DoubleValue
68.813

@<SCITEGIC>MOL_PROPERTY
VdW
SciTegic.value.DoubleValue
0.600

@<SCITEGIC>MOL_PROPERTY
VdW6
SciTegic.value.DoubleValue
-7.202

@<SCITEGIC>MOL_PROPERTY
VdW12
SciTegic.value.DoubleValue
7.801

@<SCITEGIC>MOL_PROPERTY
Bond
SciTegic.value.DoubleValue
0.224

@<SCITEGIC>MOL_PROPERTY
Angle
SciTegic.value.DoubleValue
0.821

@<SCITEGIC>MOL_PROPERTY
Pdih
SciTegic.value.DoubleValue
1.760

@<SCITEGIC>MOL_PROPERTY
Idih
SciTegic.value.DoubleValue
0.000

@<SCITEGIC>MOL_PROPERTY
Tether
SciTegic.value.DoubleValue
0.000

@<TRIPOS>MOLECULE
guest-s12_vm2.mol2 : vm2 ligand conformer 55
          26          25           1
SMALL
USER_CHARGES
 
@<TRIPOS>ATOM
       1    N1      20.209269   18.439365   26.220654 N.4        1 MOL1        -0.4857
       2    H1      20.960893   17.827295   26.576104 H          1 MOL1         0.3650
       3    H2      19.343663   17.888686   26.329791 H          1 MOL1         0.3650
       4    C1      20.455293   18.746392   24.752884 C.3        1 MOL1         0.0209
       5    H3      20.663214   17.795839   24.255978 H          1 MOL1         0.0967
       6    H4      21.351299   19.368333   24.684506 H          1 MOL1         0.0967
       7    C2      19.277484   19.442311   24.037619 C.3        1 MOL1        -0.1378
       8    H5      18.371880   18.829569   24.137692 H          1 MOL1         0.0993
       9    H6      19.064426   20.399657   24.530234 H          1 MOL1         0.0993
      10    C3      19.563115   19.707765   22.540562 C.3        1 MOL1        -0.1338
      11    H7      20.451037   20.347900   22.452897 H          1 MOL1         0.0993
      12    H8      18.724494   20.277785   22.117485 H          1 MOL1         0.0993
      13    C4      19.760828   18.407627   21.720417 C.3        1 MOL1        -0.1338
      14    H9      20.657186   17.875214   22.065549 H          1 MOL1         0.0993
      15    H10     18.911196   17.735173   21.902805 H          1 MOL1         0.0993
      16    C5      19.873038   18.654639   20.196449 C.3        1 MOL1        -0.1313
      17    H11     18.967192   19.160320   19.833752 H          1 MOL1         0.0993
      18    H12     19.908570   17.683474   19.683166 H          1 MOL1         0.0993
      19    C6      21.121137   19.474967   19.798093 C.3        1 MOL1        -0.2328
      20    H13     21.201575   19.545990   18.705660 H          1 MOL1         0.1004
      21    H14     22.039442   19.003885   20.171973 H          1 MOL1         0.1004
      22    H15     21.074098   20.497751   20.192013 H          1 MOL1         0.1004
      23    C7      20.147837   19.716933   27.050322 C.3        1 MOL1        -0.0781
      24    H16     21.082585   20.268660   26.929172 H          1 MOL1         0.0978
      25    H17     19.309443   20.328756   26.711569 H          1 MOL1         0.0978
      26    H18     20.008713   19.453805   28.101269 H          1 MOL1         0.0978
@<TRIPOS>BOND
    1     1     2    1
    2     1     3    1
    3     1     4    1
    4     4     5    1
    5     4     6    1
    6     4     7    1
    7     7     8    1
    8     7     9    1
    9     7    10    1
   10    10    11    1
   11    10    12    1
   12    10    13    1
   13    13    14    1
   14    13    15    1
   15    13    16    1
   16    16    17    1
   17    16    18    1
   18    16    19    1
   19    19    20    1
   20    19    21    1
   21    19    22    1
   22     1    23    1
   23    23    24    1
   24    23    25    1
   25    23    26    1
@<TRIPOS>SUBSTRUCTURE
       1 MOL1            1 RESIDUE      1      MOL     
@<SCITEGIC>MOL_PROPERTY
VM2 Rank
SciTegic.value.IntegerValue
55

@<SCITEGIC>MOL_PROPERTY
Conf_Id
SciTegic.value.IntegerValue
837

@<SCITEGIC>MOL_PROPERTY
Probability
SciTegic.value.DoubleValue
0.64

@<SCITEGIC>MOL_PROPERTY
Sum Probability
SciTegic.value.DoubleValue
85.21

@<SCITEGIC>MOL_PROPERTY
Delta G
SciTegic.value.DoubleValue
1.438

@<SCITEGIC>MOL_PROPERTY
G
SciTegic.value.DoubleValue
76.904

@<SCITEGIC>MOL_PROPERTY
E
SciTegic.value.DoubleValue
44.355

@<SCITEGIC>MOL_PROPERTY
-TS
SciTegic.value.DoubleValue
32.549

@<SCITEGIC>MOL_PROPERTY
U+W
SciTegic.value.DoubleValue
22.893

@<SCITEGIC>MOL_PROPERTY
U
SciTegic.value.DoubleValue
72.218

@<SCITEGIC>MOL_PROPERTY
W
SciTegic.value.DoubleValue
-49.325

@<SCITEGIC>MOL_PROPERTY
W(PB)
SciTegic.value.DoubleValue
-51.600

@<SCITEGIC>MOL_PROPERTY
W(SA)
SciTegic.value.DoubleValue
2.275

@<SCITEGIC>MOL_PROPERTY
Valence
SciTegic.value.DoubleValue
2.805

@<SCITEGIC>MOL_PROPERTY
Coulomb
SciTegic.value.DoubleValue
68.813

@<SCITEGIC>MOL_PROPERTY
VdW
SciTegic.value.DoubleValue
0.600

@<SCITEGIC>MOL_PROPERTY
VdW6
SciTegic.value.DoubleValue
-7.202

@<SCITEGIC>MOL_PROPERTY
VdW12
SciTegic.value.DoubleValue
7.802

@<SCITEGIC>MOL_PROPERTY
Bond
SciTegic.value.DoubleValue
0.224

@<SCITEGIC>MOL_PROPERTY
Angle
SciTegic.value.DoubleValue
0.821

@<SCITEGIC>MOL_PROPERTY
Pdih
SciTegic.value.DoubleValue
1.760

@<SCITEGIC>MOL_PROPERTY
Idih
SciTegic.value.DoubleValue
0.000

@<SCITEGIC>MOL_PROPERTY
Tether
SciTegic.value.DoubleValue
0.000

@<TRIPOS>MOLECULE
guest-s12_vm2.mol2 : vm2 ligand conformer 56
          26          25           1
SMALL
USER_CHARGES
 
@<TRIPOS>ATOM
       1    N1      20.359966   19.292574   26.392851 N.4        1 MOL1        -0.4857
       2    H1      20.773707   20.085010   26.909359 H          1 MOL1         0.3650
       3    H2      20.866533   18.460267   26.732110 H          1 MOL1         0.3650
       4    C1      20.593433   19.478741   24.903065 C.3        1 MOL1         0.0209
       5    H3      21.652259   19.713021   24.766702 H          1 MOL1         0.0967
       6    H4      20.009688   20.343615   24.579430 H          1 MOL1         0.0967
       7    C2      20.237447   18.248447   24.041315 C.3        1 MOL1        -0.1378
       8    H5      20.777442   17.373971   24.427682 H          1 MOL1         0.0993
       9    H6      19.167269   18.022237   24.132891 H          1 MOL1         0.0993
      10    C3      20.596647   18.440205   22.548775 C.3        1 MOL1        -0.1338
      11    H7      20.420459   17.489917   22.028309 H          1 MOL1         0.0993
      12    H8      21.670595   18.652639   22.454615 H          1 MOL1         0.0993
      13    C4      19.778059   19.566376   21.867223 C.3        1 MOL1        -0.1338
      14    H9      18.705061   19.342506   21.943389 H          1 MOL1         0.0993
      15    H10     19.934977   20.511138   22.404224 H          1 MOL1         0.0993
      16    C5      20.154245   19.789173   20.382077 C.3        1 MOL1        -0.1313
      17    H11     21.224577   20.024989   20.300834 H          1 MOL1         0.0993
      18    H12     19.616577   20.673349   20.011875 H          1 MOL1         0.0993
      19    C6      19.815934   18.585911   19.472443 C.3        1 MOL1        -0.2328
      20    H13     20.423279   17.707193   19.721867 H          1 MOL1         0.1004
      21    H14     20.011446   18.832854   18.420908 H          1 MOL1         0.1004
      22    H15     18.757270   18.309345   19.560375 H          1 MOL1         0.1004
      23    C7      18.872268   19.188572   26.709251 C.3        1 MOL1        -0.0781
      24    H16     18.742812   19.092055   27.789534 H          1 MOL1         0.0978
      25    H17     18.366572   20.090046   26.356477 H          1 MOL1         0.0978
      26    H18     18.456735   18.310874   26.210214 H          1 MOL1         0.0978
@<TRIPOS>BOND
    1     1     2    1
    2     1     3    1
    3     1     4    1
    4     4     5    1
    5     4     6    1
    6     4     7    1
    7     7     8    1
    8     7     9    1
    9     7    10    1
   10    10    11    1
   11    10    12    1
   12    10    13    1
   13    13    14    1
   14    13    15    1
   15    13    16    1
   16    16    17    1
   17    16    18    1
   18    16    19    1
   19    19    20    1
   20    19    21    1
   21    19    22    1
   22     1    23    1
   23    23    24    1
   24    23    25    1
   25    23    26    1
@<TRIPOS>SUBSTRUCTURE
       1 MOL1            1 RESIDUE      1      MOL     
@<SCITEGIC>MOL_PROPERTY
VM2 Rank
SciTegic.value.IntegerValue
56

@<SCITEGIC>MOL_PROPERTY
Conf_Id
SciTegic.value.IntegerValue
264

@<SCITEGIC>MOL_PROPERTY
Probability
SciTegic.value.DoubleValue
0.58

@<SCITEGIC>MOL_PROPERTY
Sum Probability
SciTegic.value.DoubleValue
85.79

@<SCITEGIC>MOL_PROPERTY
Delta G
SciTegic.value.DoubleValue
1.493

@<SCITEGIC>MOL_PROPERTY
G
SciTegic.value.DoubleValue
76.959

@<SCITEGIC>MOL_PROPERTY
E
SciTegic.value.DoubleValue
44.445

@<SCITEGIC>MOL_PROPERTY
-TS
SciTegic.value.DoubleValue
32.514

@<SCITEGIC>MOL_PROPERTY
U+W
SciTegic.value.DoubleValue
22.984

@<SCITEGIC>MOL_PROPERTY
U
SciTegic.value.DoubleValue
72.180

@<SCITEGIC>MOL_PROPERTY
W
SciTegic.value.DoubleValue
-49.197

@<SCITEGIC>MOL_PROPERTY
W(PB)
SciTegic.value.DoubleValue
-51.484

@<SCITEGIC>MOL_PROPERTY
W(SA)
SciTegic.value.DoubleValue
2.287

@<SCITEGIC>MOL_PROPERTY
Valence
SciTegic.value.DoubleValue
2.842

@<SCITEGIC>MOL_PROPERTY
Coulomb
SciTegic.value.DoubleValue
68.728

@<SCITEGIC>MOL_PROPERTY
VdW
SciTegic.value.DoubleValue
0.611

@<SCITEGIC>MOL_PROPERTY
VdW6
SciTegic.value.DoubleValue
-7.185

@<SCITEGIC>MOL_PROPERTY
VdW12
SciTegic.value.DoubleValue
7.795

@<SCITEGIC>MOL_PROPERTY
Bond
SciTegic.value.DoubleValue
0.227

@<SCITEGIC>MOL_PROPERTY
Angle
SciTegic.value.DoubleValue
0.860

@<SCITEGIC>MOL_PROPERTY
Pdih
SciTegic.value.DoubleValue
1.755

@<SCITEGIC>MOL_PROPERTY
Idih
SciTegic.value.DoubleValue
0.000

@<SCITEGIC>MOL_PROPERTY
Tether
SciTegic.value.DoubleValue
0.000

@<TRIPOS>MOLECULE
guest-s12_vm2.mol2 : vm2 ligand conformer 57
          26          25           1
SMALL
USER_CHARGES
 
@<TRIPOS>ATOM
       1    N1      20.032247   19.027282   26.294758 N.4        1 MOL1        -0.4857
       2    H1      20.862329   18.431320   26.436915 H          1 MOL1         0.3650
       3    H2      19.429749   18.844003   27.112887 H          1 MOL1         0.3650
       4    C1      19.303414   18.618888   25.025420 C.3        1 MOL1         0.0209
       5    H3      18.457634   19.297576   24.889728 H          1 MOL1         0.0967
       6    H4      18.908200   17.612833   25.187596 H          1 MOL1         0.0967
       7    C2      20.180417   18.613906   23.756903 C.3        1 MOL1        -0.1378
       8    H5      20.558940   19.626628   23.572805 H          1 MOL1         0.0993
       9    H6      21.051918   17.966080   23.918874 H          1 MOL1         0.0993
      10    C3      19.385135   18.118643   22.526202 C.3        1 MOL1        -0.1338
      11    H7      18.534500   18.787859   22.340156 H          1 MOL1         0.0993
      12    H8      18.950538   17.135458   22.754270 H          1 MOL1         0.0993
      13    C4      20.245520   17.986202   21.242693 C.3        1 MOL1        -0.1338
      14    H9      21.022516   17.227590   21.410096 H          1 MOL1         0.0993
      15    H10     19.613317   17.594312   20.434003 H          1 MOL1         0.0993
      16    C5      20.921719   19.294990   20.759700 C.3        1 MOL1        -0.1313
      17    H11     21.496835   19.075588   19.849271 H          1 MOL1         0.0993
      18    H12     21.655134   19.639765   21.500871 H          1 MOL1         0.0993
      19    C6      19.917755   20.429249   20.452259 C.3        1 MOL1        -0.2328
      20    H13     19.162036   20.101491   19.726725 H          1 MOL1         0.1004
      21    H14     20.437102   21.297687   20.026885 H          1 MOL1         0.1004
      22    H15     19.400750   20.765903   21.359450 H          1 MOL1         0.1004
      23    C7      20.421794   20.500840   26.259066 C.3        1 MOL1        -0.0781
      24    H16     20.907739   20.764594   27.201076 H          1 MOL1         0.0978
      25    H17     21.111148   20.673101   25.430129 H          1 MOL1         0.0978
      26    H18     19.522703   21.106448   26.125962 H          1 MOL1         0.0978
@<TRIPOS>BOND
    1     1     2    1
    2     1     3    1
    3     1     4    1
    4     4     5    1
    5     4     6    1
    6     4     7    1
    7     7     8    1
    8     7     9    1
    9     7    10    1
   10    10    11    1
   11    10    12    1
   12    10    13    1
   13    13    14    1
   14    13    15    1
   15    13    16    1
   16    16    17    1
   17    16    18    1
   18    16    19    1
   19    19    20    1
   20    19    21    1
   21    19    22    1
   22     1    23    1
   23    23    24    1
   24    23    25    1
   25    23    26    1
@<TRIPOS>SUBSTRUCTURE
       1 MOL1            1 RESIDUE      1      MOL     
@<SCITEGIC>MOL_PROPERTY
VM2 Rank
SciTegic.value.IntegerValue
57

@<SCITEGIC>MOL_PROPERTY
Conf_Id
SciTegic.value.IntegerValue
1114

@<SCITEGIC>MOL_PROPERTY
Probability
SciTegic.value.DoubleValue
0.55

@<SCITEGIC>MOL_PROPERTY
Sum Probability
SciTegic.value.DoubleValue
86.34

@<SCITEGIC>MOL_PROPERTY
Delta G
SciTegic.value.DoubleValue
1.528

@<SCITEGIC>MOL_PROPERTY
G
SciTegic.value.DoubleValue
76.994

@<SCITEGIC>MOL_PROPERTY
E
SciTegic.value.DoubleValue
44.228

@<SCITEGIC>MOL_PROPERTY
-TS
SciTegic.value.DoubleValue
32.766

@<SCITEGIC>MOL_PROPERTY
U+W
SciTegic.value.DoubleValue
22.766

@<SCITEGIC>MOL_PROPERTY
U
SciTegic.value.DoubleValue
72.216

@<SCITEGIC>MOL_PROPERTY
W
SciTegic.value.DoubleValue
-49.450

@<SCITEGIC>MOL_PROPERTY
W(PB)
SciTegic.value.DoubleValue
-51.685

@<SCITEGIC>MOL_PROPERTY
W(SA)
SciTegic.value.DoubleValue
2.235

@<SCITEGIC>MOL_PROPERTY
Valence
SciTegic.value.DoubleValue
2.957

@<SCITEGIC>MOL_PROPERTY
Coulomb
SciTegic.value.DoubleValue
68.762

@<SCITEGIC>MOL_PROPERTY
VdW
SciTegic.value.DoubleValue
0.497

@<SCITEGIC>MOL_PROPERTY
VdW6
SciTegic.value.DoubleValue
-7.593

@<SCITEGIC>MOL_PROPERTY
VdW12
SciTegic.value.DoubleValue
8.090

@<SCITEGIC>MOL_PROPERTY
Bond
SciTegic.value.DoubleValue
0.242

@<SCITEGIC>MOL_PROPERTY
Angle
SciTegic.value.DoubleValue
1.122

@<SCITEGIC>MOL_PROPERTY
Pdih
SciTegic.value.DoubleValue
1.593

@<SCITEGIC>MOL_PROPERTY
Idih
SciTegic.value.DoubleValue
0.000

@<SCITEGIC>MOL_PROPERTY
Tether
SciTegic.value.DoubleValue
0.000

@<TRIPOS>MOLECULE
guest-s12_vm2.mol2 : vm2 ligand conformer 58
          26          25           1
SMALL
USER_CHARGES
 
@<TRIPOS>ATOM
       1    N1      19.870501   18.298574   26.126123 N.4        1 MOL1        -0.4857
       2    H1      20.440187   17.864588   26.869803 H          1 MOL1         0.3650
       3    H2      19.247685   17.545886   25.794576 H          1 MOL1         0.3650
       4    C1      20.776586   18.765729   24.999163 C.3        1 MOL1         0.0209
       5    H3      21.438715   17.932963   24.748685 H          1 MOL1         0.0967
       6    H4      21.391530   19.585228   25.379478 H          1 MOL1         0.0967
       7    C2      20.033676   19.215327   23.724697 C.3        1 MOL1        -0.1378
       8    H5      19.381003   18.400814   23.386505 H          1 MOL1         0.0993
       9    H6      19.389226   20.073733   23.953617 H          1 MOL1         0.0993
      10    C3      21.026085   19.600750   22.602663 C.3        1 MOL1        -0.1338
      11    H7      21.644384   18.732319   22.338944 H          1 MOL1         0.0993
      12    H8      21.721359   20.359882   22.987213 H          1 MOL1         0.0993
      13    C4      20.338660   20.166849   21.332977 C.3        1 MOL1        -0.1338
      14    H9      19.818402   21.098808   21.593794 H          1 MOL1         0.0993
      15    H10     21.114901   20.449568   20.608577 H          1 MOL1         0.0993
      16    C5      19.333171   19.210675   20.641588 C.3        1 MOL1        -0.1313
      17    H11     18.914506   19.720262   19.762488 H          1 MOL1         0.0993
      18    H12     18.481312   19.010449   21.305177 H          1 MOL1         0.0993
      19    C6      19.966239   17.875708   20.187643 C.3        1 MOL1        -0.2328
      20    H13     20.832905   18.050940   19.537165 H          1 MOL1         0.1004
      21    H14     19.238968   17.277253   19.623924 H          1 MOL1         0.1004
      22    H15     20.294907   17.274327   21.044329 H          1 MOL1         0.1004
      23    C7      19.063082   19.456389   26.702146 C.3        1 MOL1        -0.0781
      24    H16     18.453985   19.089377   27.531234 H          1 MOL1         0.0978
      25    H17     19.747934   20.227720   27.061122 H          1 MOL1         0.0978
      26    H18     18.415461   19.867761   25.925354 H          1 MOL1         0.0978
@<TRIPOS>BOND
    1     1     2    1
    2     1     3    1
    3     1     4    1
    4     4     5    1
    5     4     6    1
    6     4     7    1
    7     7     8    1
    8     7     9    1
    9     7    10    1
   10    10    11    1
   11    10    12    1
   12    10    13    1
   13    13    14    1
   14    13    15    1
   15    13    16    1
   16    16    17    1
   17    16    18    1
   18    16    19    1
   19    19    20    1
   20    19    21    1
   21    19    22    1
   22     1    23    1
   23    23    24    1
   24    23    25    1
   25    23    26    1
@<TRIPOS>SUBSTRUCTURE
       1 MOL1            1 RESIDUE      1      MOL     
@<SCITEGIC>MOL_PROPERTY
VM2 Rank
SciTegic.value.IntegerValue
58

@<SCITEGIC>MOL_PROPERTY
Conf_Id
SciTegic.value.IntegerValue
1263

@<SCITEGIC>MOL_PROPERTY
Probability
SciTegic.value.DoubleValue
0.54

@<SCITEGIC>MOL_PROPERTY
Sum Probability
SciTegic.value.DoubleValue
86.88

@<SCITEGIC>MOL_PROPERTY
Delta G
SciTegic.value.DoubleValue
1.540

@<SCITEGIC>MOL_PROPERTY
G
SciTegic.value.DoubleValue
77.006

@<SCITEGIC>MOL_PROPERTY
E
SciTegic.value.DoubleValue
44.245

@<SCITEGIC>MOL_PROPERTY
-TS
SciTegic.value.DoubleValue
32.760

@<SCITEGIC>MOL_PROPERTY
U+W
SciTegic.value.DoubleValue
22.784

@<SCITEGIC>MOL_PROPERTY
U
SciTegic.value.DoubleValue
72.256

@<SCITEGIC>MOL_PROPERTY
W
SciTegic.value.DoubleValue
-49.473

@<SCITEGIC>MOL_PROPERTY
W(PB)
SciTegic.value.DoubleValue
-51.710

@<SCITEGIC>MOL_PROPERTY
W(SA)
SciTegic.value.DoubleValue
2.238

@<SCITEGIC>MOL_PROPERTY
Valence
SciTegic.value.DoubleValue
2.959

@<SCITEGIC>MOL_PROPERTY
Coulomb
SciTegic.value.DoubleValue
68.783

@<SCITEGIC>MOL_PROPERTY
VdW
SciTegic.value.DoubleValue
0.514

@<SCITEGIC>MOL_PROPERTY
VdW6
SciTegic.value.DoubleValue
-7.552

@<SCITEGIC>MOL_PROPERTY
VdW12
SciTegic.value.DoubleValue
8.066

@<SCITEGIC>MOL_PROPERTY
Bond
SciTegic.value.DoubleValue
0.240

@<SCITEGIC>MOL_PROPERTY
Angle
SciTegic.value.DoubleValue
1.124

@<SCITEGIC>MOL_PROPERTY
Pdih
SciTegic.value.DoubleValue
1.594

@<SCITEGIC>MOL_PROPERTY
Idih
SciTegic.value.DoubleValue
0.000

@<SCITEGIC>MOL_PROPERTY
Tether
SciTegic.value.DoubleValue
0.000

@<TRIPOS>MOLECULE
guest-s12_vm2.mol2 : vm2 ligand conformer 59
          26          25           1
SMALL
USER_CHARGES
 
@<TRIPOS>ATOM
       1    N1      19.868350   19.010254   26.288876 N.4        1 MOL1        -0.4857
       2    H1      20.436716   18.948190   27.148549 H          1 MOL1         0.3650
       3    H2      19.169962   18.255965   26.376738 H          1 MOL1         0.3650
       4    C1      20.752529   18.769030   25.076757 C.3        1 MOL1         0.0209
       5    H3      21.333041   17.864082   25.273525 H          1 MOL1         0.0967
       6    H4      21.448776   19.607514   24.995780 H          1 MOL1         0.0967
       7    C2      19.986251   18.593781   23.749957 C.3        1 MOL1        -0.1378
       8    H5      19.256819   17.779963   23.855103 H          1 MOL1         0.0993
       9    H6      19.422102   19.508782   23.532503 H          1 MOL1         0.0993
      10    C3      20.950378   18.281037   22.581611 C.3        1 MOL1        -0.1338
      11    H7      21.560264   17.406218   22.846693 H          1 MOL1         0.0993
      12    H8      21.656621   19.111781   22.450734 H          1 MOL1         0.0993
      13    C4      20.227482   17.984331   21.241990 C.3        1 MOL1        -0.1338
      14    H9      20.981674   17.736445   20.482396 H          1 MOL1         0.0993
      15    H10     19.612897   17.081229   21.360019 H          1 MOL1         0.0993
      16    C5      19.332636   19.130045   20.703438 C.3        1 MOL1        -0.1313
      17    H11     18.493984   19.311481   21.388893 H          1 MOL1         0.0993
      18    H12     18.880025   18.804040   19.756527 H          1 MOL1         0.0993
      19    C6      20.101483   20.448432   20.459027 C.3        1 MOL1        -0.2328
      20    H13     20.473494   20.877309   21.397802 H          1 MOL1         0.1004
      21    H14     19.446092   21.194923   19.992056 H          1 MOL1         0.1004
      22    H15     20.957345   20.288101   19.790649 H          1 MOL1         0.1004
      23    C7      19.188891   20.373090   26.215344 C.3        1 MOL1        -0.0781
      24    H16     18.594431   20.524885   27.119040 H          1 MOL1         0.0978
      25    H17     19.952046   21.150873   26.141245 H          1 MOL1         0.0978
      26    H18     18.538716   20.406656   25.338894 H          1 MOL1         0.0978
@<TRIPOS>BOND
    1     1     2    1
    2     1     3    1
    3     1     4    1
    4     4     5    1
    5     4     6    1
    6     4     7    1
    7     7     8    1
    8     7     9    1
    9     7    10    1
   10    10    11    1
   11    10    12    1
   12    10    13    1
   13    13    14    1
   14    13    15    1
   15    13    16    1
   16    16    17    1
   17    16    18    1
   18    16    19    1
   19    19    20    1
   20    19    21    1
   21    19    22    1
   22     1    23    1
   23    23    24    1
   24    23    25    1
   25    23    26    1
@<TRIPOS>SUBSTRUCTURE
       1 MOL1            1 RESIDUE      1      MOL     
@<SCITEGIC>MOL_PROPERTY
VM2 Rank
SciTegic.value.IntegerValue
59

@<SCITEGIC>MOL_PROPERTY
Conf_Id
SciTegic.value.IntegerValue
750

@<SCITEGIC>MOL_PROPERTY
Probability
SciTegic.value.DoubleValue
0.52

@<SCITEGIC>MOL_PROPERTY
Sum Probability
SciTegic.value.DoubleValue
87.40

@<SCITEGIC>MOL_PROPERTY
Delta G
SciTegic.value.DoubleValue
1.555

@<SCITEGIC>MOL_PROPERTY
G
SciTegic.value.DoubleValue
77.021

@<SCITEGIC>MOL_PROPERTY
E
SciTegic.value.DoubleValue
44.256

@<SCITEGIC>MOL_PROPERTY
-TS
SciTegic.value.DoubleValue
32.766

@<SCITEGIC>MOL_PROPERTY
U+W
SciTegic.value.DoubleValue
22.794

@<SCITEGIC>MOL_PROPERTY
U
SciTegic.value.DoubleValue
72.216

@<SCITEGIC>MOL_PROPERTY
W
SciTegic.value.DoubleValue
-49.422

@<SCITEGIC>MOL_PROPERTY
W(PB)
SciTegic.value.DoubleValue
-51.677

@<SCITEGIC>MOL_PROPERTY
W(SA)
SciTegic.value.DoubleValue
2.255

@<SCITEGIC>MOL_PROPERTY
Valence
SciTegic.value.DoubleValue
2.957

@<SCITEGIC>MOL_PROPERTY
Coulomb
SciTegic.value.DoubleValue
68.763

@<SCITEGIC>MOL_PROPERTY
VdW
SciTegic.value.DoubleValue
0.497

@<SCITEGIC>MOL_PROPERTY
VdW6
SciTegic.value.DoubleValue
-7.594

@<SCITEGIC>MOL_PROPERTY
VdW12
SciTegic.value.DoubleValue
8.090

@<SCITEGIC>MOL_PROPERTY
Bond
SciTegic.value.DoubleValue
0.241

@<SCITEGIC>MOL_PROPERTY
Angle
SciTegic.value.DoubleValue
1.122

@<SCITEGIC>MOL_PROPERTY
Pdih
SciTegic.value.DoubleValue
1.593

@<SCITEGIC>MOL_PROPERTY
Idih
SciTegic.value.DoubleValue
0.000

@<SCITEGIC>MOL_PROPERTY
Tether
SciTegic.value.DoubleValue
0.000

@<TRIPOS>MOLECULE
guest-s12_vm2.mol2 : vm2 ligand conformer 60
          26          25           1
SMALL
USER_CHARGES
 
@<TRIPOS>ATOM
       1    N1      19.838437   18.114145   25.782602 N.4        1 MOL1        -0.4857
       2    H1      20.409693   17.303553   26.069790 H          1 MOL1         0.3650
       3    H2      18.930376   17.713662   25.500995 H          1 MOL1         0.3650
       4    C1      20.496926   18.806860   24.601242 C.3        1 MOL1         0.0209
       5    H3      20.744718   18.032362   23.871381 H          1 MOL1         0.0967
       6    H4      21.430133   19.255449   24.950771 H          1 MOL1         0.0967
       7    C2      19.622366   19.879702   23.918057 C.3        1 MOL1        -0.1378
       8    H5      18.668891   19.435145   23.606274 H          1 MOL1         0.0993
       9    H6      19.371841   20.663599   24.644169 H          1 MOL1         0.0993
      10    C3      20.323133   20.539261   22.703858 C.3        1 MOL1        -0.1338
      11    H7      21.203309   21.092706   23.059487 H          1 MOL1         0.0993
      12    H8      19.649942   21.291132   22.269358 H          1 MOL1         0.0993
      13    C4      20.770759   19.555540   21.591506 C.3        1 MOL1        -0.1338
      14    H9      21.269424   20.132529   20.800426 H          1 MOL1         0.0993
      15    H10     21.528963   18.864248   21.983118 H          1 MOL1         0.0993
      16    C5      19.604693   18.752426   20.967938 C.3        1 MOL1        -0.1313
      17    H11     18.826482   19.442731   20.613494 H          1 MOL1         0.0993
      18    H12     19.138899   18.109459   21.726597 H          1 MOL1         0.0993
      19    C6      20.082992   17.873245   19.792765 C.3        1 MOL1        -0.2328
      20    H13     19.244472   17.308942   19.364453 H          1 MOL1         0.1004
      21    H14     20.841052   17.151137   20.123051 H          1 MOL1         0.1004
      22    H15     20.519642   18.485576   18.993035 H          1 MOL1         0.1004
      23    C7      19.668694   19.068822   26.959033 C.3        1 MOL1        -0.0781
      24    H16     19.229077   18.526014   27.798778 H          1 MOL1         0.0978
      25    H17     20.646393   19.462170   27.245756 H          1 MOL1         0.0978
      26    H18     19.009829   19.889138   26.667561 H          1 MOL1         0.0978
@<TRIPOS>BOND
    1     1     2    1
    2     1     3    1
    3     1     4    1
    4     4     5    1
    5     4     6    1
    6     4     7    1
    7     7     8    1
    8     7     9    1
    9     7    10    1
   10    10    11    1
   11    10    12    1
   12    10    13    1
   13    13    14    1
   14    13    15    1
   15    13    16    1
   16    16    17    1
   17    16    18    1
   18    16    19    1
   19    19    20    1
   20    19    21    1
   21    19    22    1
   22     1    23    1
   23    23    24    1
   24    23    25    1
   25    23    26    1
@<TRIPOS>SUBSTRUCTURE
       1 MOL1            1 RESIDUE      1      MOL     
@<SCITEGIC>MOL_PROPERTY
VM2 Rank
SciTegic.value.IntegerValue
60

@<SCITEGIC>MOL_PROPERTY
Conf_Id
SciTegic.value.IntegerValue
1259

@<SCITEGIC>MOL_PROPERTY
Probability
SciTegic.value.DoubleValue
0.52

@<SCITEGIC>MOL_PROPERTY
Sum Probability
SciTegic.value.DoubleValue
87.93

@<SCITEGIC>MOL_PROPERTY
Delta G
SciTegic.value.DoubleValue
1.557

@<SCITEGIC>MOL_PROPERTY
G
SciTegic.value.DoubleValue
77.023

@<SCITEGIC>MOL_PROPERTY
E
SciTegic.value.DoubleValue
44.351

@<SCITEGIC>MOL_PROPERTY
-TS
SciTegic.value.DoubleValue
32.672

@<SCITEGIC>MOL_PROPERTY
U+W
SciTegic.value.DoubleValue
22.889

@<SCITEGIC>MOL_PROPERTY
U
SciTegic.value.DoubleValue
72.548

@<SCITEGIC>MOL_PROPERTY
W
SciTegic.value.DoubleValue
-49.660

@<SCITEGIC>MOL_PROPERTY
W(PB)
SciTegic.value.DoubleValue
-51.921

@<SCITEGIC>MOL_PROPERTY
W(SA)
SciTegic.value.DoubleValue
2.262

@<SCITEGIC>MOL_PROPERTY
Valence
SciTegic.value.DoubleValue
2.777

@<SCITEGIC>MOL_PROPERTY
Coulomb
SciTegic.value.DoubleValue
69.321

@<SCITEGIC>MOL_PROPERTY
VdW
SciTegic.value.DoubleValue
0.450

@<SCITEGIC>MOL_PROPERTY
VdW6
SciTegic.value.DoubleValue
-7.543

@<SCITEGIC>MOL_PROPERTY
VdW12
SciTegic.value.DoubleValue
7.993

@<SCITEGIC>MOL_PROPERTY
Bond
SciTegic.value.DoubleValue
0.232

@<SCITEGIC>MOL_PROPERTY
Angle
SciTegic.value.DoubleValue
0.993

@<SCITEGIC>MOL_PROPERTY
Pdih
SciTegic.value.DoubleValue
1.552

@<SCITEGIC>MOL_PROPERTY
Idih
SciTegic.value.DoubleValue
0.000

@<SCITEGIC>MOL_PROPERTY
Tether
SciTegic.value.DoubleValue
0.000

@<TRIPOS>MOLECULE
guest-s12_vm2.mol2 : vm2 ligand conformer 61
          26          25           1
SMALL
USER_CHARGES
 
@<TRIPOS>ATOM
       1    N1      20.184865   18.330584   26.137206 N.4        1 MOL1        -0.4857
       2    H1      20.968238   17.721244   25.855431 H          1 MOL1         0.3650
       3    H2      19.663659   17.785361   26.842205 H          1 MOL1         0.3650
       4    C1      19.284431   18.613683   24.946269 C.3        1 MOL1         0.0209
       5    H3      18.491890   19.289724   25.276754 H          1 MOL1         0.0967
       6    H4      18.822869   17.666410   24.655947 H          1 MOL1         0.0967
       7    C2      20.008910   19.212875   23.723806 C.3        1 MOL1        -0.1378
       8    H5      20.449486   20.181887   23.991184 H          1 MOL1         0.0993
       9    H6      20.834397   18.549048   23.437988 H          1 MOL1         0.0993
      10    C3      19.040275   19.398388   22.532286 C.3        1 MOL1        -0.1338
      11    H7      18.181097   19.999084   22.861749 H          1 MOL1         0.0993
      12    H8      18.629679   18.425074   22.232139 H          1 MOL1         0.0993
      13    C4      19.686723   20.100409   21.309833 C.3        1 MOL1        -0.1338
      14    H9      18.922117   20.226024   20.530836 H          1 MOL1         0.0993
      15    H10     19.988919   21.116219   21.599746 H          1 MOL1         0.0993
      16    C5      20.910185   19.371425   20.697441 C.3        1 MOL1        -0.1313
      17    H11     21.736332   19.342364   21.420450 H          1 MOL1         0.0993
      18    H12     21.278028   19.961110   19.846125 H          1 MOL1         0.0993
      19    C6      20.592564   17.939471   20.209993 C.3        1 MOL1        -0.2328
      20    H13     19.756069   17.940966   19.499211 H          1 MOL1         0.1004
      21    H14     20.332723   17.278175   21.045913 H          1 MOL1         0.1004
      22    H15     21.463179   17.503880   19.702900 H          1 MOL1         0.1004
      23    C7      20.700046   19.623166   26.760167 C.3        1 MOL1        -0.0781
      24    H16     21.310972   19.380455   27.632489 H          1 MOL1         0.0978
      25    H17     21.304308   20.162161   26.027774 H          1 MOL1         0.0978
      26    H18     19.850389   20.238091   27.064780 H          1 MOL1         0.0978
@<TRIPOS>BOND
    1     1     2    1
    2     1     3    1
    3     1     4    1
    4     4     5    1
    5     4     6    1
    6     4     7    1
    7     7     8    1
    8     7     9    1
    9     7    10    1
   10    10    11    1
   11    10    12    1
   12    10    13    1
   13    13    14    1
   14    13    15    1
   15    13    16    1
   16    16    17    1
   17    16    18    1
   18    16    19    1
   19    19    20    1
   20    19    21    1
   21    19    22    1
   22     1    23    1
   23    23    24    1
   24    23    25    1
   25    23    26    1
@<TRIPOS>SUBSTRUCTURE
       1 MOL1            1 RESIDUE      1      MOL     
@<SCITEGIC>MOL_PROPERTY
VM2 Rank
SciTegic.value.IntegerValue
61

@<SCITEGIC>MOL_PROPERTY
Conf_Id
SciTegic.value.IntegerValue
809

@<SCITEGIC>MOL_PROPERTY
Probability
SciTegic.value.DoubleValue
0.51

@<SCITEGIC>MOL_PROPERTY
Sum Probability
SciTegic.value.DoubleValue
88.44

@<SCITEGIC>MOL_PROPERTY
Delta G
SciTegic.value.DoubleValue
1.568

@<SCITEGIC>MOL_PROPERTY
G
SciTegic.value.DoubleValue
77.034

@<SCITEGIC>MOL_PROPERTY
E
SciTegic.value.DoubleValue
44.274

@<SCITEGIC>MOL_PROPERTY
-TS
SciTegic.value.DoubleValue
32.761

@<SCITEGIC>MOL_PROPERTY
U+W
SciTegic.value.DoubleValue
22.812

@<SCITEGIC>MOL_PROPERTY
U
SciTegic.value.DoubleValue
72.256

@<SCITEGIC>MOL_PROPERTY
W
SciTegic.value.DoubleValue
-49.444

@<SCITEGIC>MOL_PROPERTY
W(PB)
SciTegic.value.DoubleValue
-51.705

@<SCITEGIC>MOL_PROPERTY
W(SA)
SciTegic.value.DoubleValue
2.261

@<SCITEGIC>MOL_PROPERTY
Valence
SciTegic.value.DoubleValue
2.959

@<SCITEGIC>MOL_PROPERTY
Coulomb
SciTegic.value.DoubleValue
68.784

@<SCITEGIC>MOL_PROPERTY
VdW
SciTegic.value.DoubleValue
0.514

@<SCITEGIC>MOL_PROPERTY
VdW6
SciTegic.value.DoubleValue
-7.552

@<SCITEGIC>MOL_PROPERTY
VdW12
SciTegic.value.DoubleValue
8.066

@<SCITEGIC>MOL_PROPERTY
Bond
SciTegic.value.DoubleValue
0.240

@<SCITEGIC>MOL_PROPERTY
Angle
SciTegic.value.DoubleValue
1.124

@<SCITEGIC>MOL_PROPERTY
Pdih
SciTegic.value.DoubleValue
1.594

@<SCITEGIC>MOL_PROPERTY
Idih
SciTegic.value.DoubleValue
0.000

@<SCITEGIC>MOL_PROPERTY
Tether
SciTegic.value.DoubleValue
0.000

@<TRIPOS>MOLECULE
guest-s12_vm2.mol2 : vm2 ligand conformer 62
          26          25           1
SMALL
USER_CHARGES
 
@<TRIPOS>ATOM
       1    N1      20.562139   18.838195   26.306693 N.4        1 MOL1        -0.4857
       2    H1      21.430290   19.154482   26.767347 H          1 MOL1         0.3650
       3    H2      20.614427   17.807880   26.319206 H          1 MOL1         0.3650
       4    C1      20.532939   19.345615   24.874591 C.3        1 MOL1         0.0209
       5    H3      21.502984   19.109864   24.430929 H          1 MOL1         0.0967
       6    H4      20.428665   20.433054   24.904870 H          1 MOL1         0.0967
       7    C2      19.415573   18.735263   24.001302 C.3        1 MOL1        -0.1378
       8    H5      19.506224   17.641016   23.997746 H          1 MOL1         0.0993
       9    H6      18.438997   18.967433   24.445098 H          1 MOL1         0.0993
      10    C3      19.435316   19.263240   22.547028 C.3        1 MOL1        -0.1338
      11    H7      19.338906   20.357790   22.553558 H          1 MOL1         0.0993
      12    H8      18.547949   18.875909   22.029827 H          1 MOL1         0.0993
      13    C4      20.710980   18.854204   21.767023 C.3        1 MOL1        -0.1338
      14    H9      21.599601   19.223009   22.295864 H          1 MOL1         0.0993
      15    H10     20.796779   17.759036   21.745073 H          1 MOL1         0.0993
      16    C5      20.751024   19.403562   20.320122 C.3        1 MOL1        -0.1313
      17    H11     21.731495   19.169564   19.882139 H          1 MOL1         0.0993
      18    H12     20.676323   20.499911   20.336301 H          1 MOL1         0.0993
      19    C6      19.648137   18.820155   19.407411 C.3        1 MOL1        -0.2328
      20    H13     19.680646   17.722941   19.400071 H          1 MOL1         0.1004
      21    H14     19.782178   19.166176   18.374339 H          1 MOL1         0.1004
      22    H15     18.647885   19.132888   19.731306 H          1 MOL1         0.1004
      23    C7      19.351891   19.329765   27.092831 C.3        1 MOL1        -0.0781
      24    H16     19.428825   18.977520   28.123893 H          1 MOL1         0.0978
      25    H17     19.333093   20.421657   27.076858 H          1 MOL1         0.0978
      26    H18     18.440538   18.936425   26.638196 H          1 MOL1         0.0978
@<TRIPOS>BOND
    1     1     2    1
    2     1     3    1
    3     1     4    1
    4     4     5    1
    5     4     6    1
    6     4     7    1
    7     7     8    1
    8     7     9    1
    9     7    10    1
   10    10    11    1
   11    10    12    1
   12    10    13    1
   13    13    14    1
   14    13    15    1
   15    13    16    1
   16    16    17    1
   17    16    18    1
   18    16    19    1
   19    19    20    1
   20    19    21    1
   21    19    22    1
   22     1    23    1
   23    23    24    1
   24    23    25    1
   25    23    26    1
@<TRIPOS>SUBSTRUCTURE
       1 MOL1            1 RESIDUE      1      MOL     
@<SCITEGIC>MOL_PROPERTY
VM2 Rank
SciTegic.value.IntegerValue
62

@<SCITEGIC>MOL_PROPERTY
Conf_Id
SciTegic.value.IntegerValue
1316

@<SCITEGIC>MOL_PROPERTY
Probability
SciTegic.value.DoubleValue
0.51

@<SCITEGIC>MOL_PROPERTY
Sum Probability
SciTegic.value.DoubleValue
88.95

@<SCITEGIC>MOL_PROPERTY
Delta G
SciTegic.value.DoubleValue
1.569

@<SCITEGIC>MOL_PROPERTY
G
SciTegic.value.DoubleValue
77.035

@<SCITEGIC>MOL_PROPERTY
E
SciTegic.value.DoubleValue
44.525

@<SCITEGIC>MOL_PROPERTY
-TS
SciTegic.value.DoubleValue
32.510

@<SCITEGIC>MOL_PROPERTY
U+W
SciTegic.value.DoubleValue
23.064

@<SCITEGIC>MOL_PROPERTY
U
SciTegic.value.DoubleValue
72.298

@<SCITEGIC>MOL_PROPERTY
W
SciTegic.value.DoubleValue
-49.235

@<SCITEGIC>MOL_PROPERTY
W(PB)
SciTegic.value.DoubleValue
-51.502

@<SCITEGIC>MOL_PROPERTY
W(SA)
SciTegic.value.DoubleValue
2.268

@<SCITEGIC>MOL_PROPERTY
Valence
SciTegic.value.DoubleValue
2.869

@<SCITEGIC>MOL_PROPERTY
Coulomb
SciTegic.value.DoubleValue
68.765

@<SCITEGIC>MOL_PROPERTY
VdW
SciTegic.value.DoubleValue
0.665

@<SCITEGIC>MOL_PROPERTY
VdW6
SciTegic.value.DoubleValue
-7.141

@<SCITEGIC>MOL_PROPERTY
VdW12
SciTegic.value.DoubleValue
7.806

@<SCITEGIC>MOL_PROPERTY
Bond
SciTegic.value.DoubleValue
0.230

@<SCITEGIC>MOL_PROPERTY
Angle
SciTegic.value.DoubleValue
0.882

@<SCITEGIC>MOL_PROPERTY
Pdih
SciTegic.value.DoubleValue
1.756

@<SCITEGIC>MOL_PROPERTY
Idih
SciTegic.value.DoubleValue
0.000

@<SCITEGIC>MOL_PROPERTY
Tether
SciTegic.value.DoubleValue
0.000

@<TRIPOS>MOLECULE
guest-s12_vm2.mol2 : vm2 ligand conformer 63
          26          25           1
SMALL
USER_CHARGES
 
@<TRIPOS>ATOM
       1    N1      19.388013   18.718069   26.265073 N.4        1 MOL1        -0.4857
       2    H1      19.544292   17.698384   26.281199 H          1 MOL1         0.3650
       3    H2      18.443769   18.849032   26.661528 H          1 MOL1         0.3650
       4    C1      19.414280   19.231268   24.834973 C.3        1 MOL1         0.0209
       5    H3      19.294218   20.317090   24.864779 H          1 MOL1         0.0967
       6    H4      18.545419   18.807528   24.326126 H          1 MOL1         0.0967
       7    C2      20.690319   18.865698   24.046455 C.3        1 MOL1        -0.1378
       8    H5      21.566271   19.287292   24.555892 H          1 MOL1         0.0993
       9    H6      20.823220   17.775772   24.044370 H          1 MOL1         0.0993
      10    C3      20.666156   19.389211   22.590631 C.3        1 MOL1        -0.1338
      11    H7      21.647454   19.192844   22.139592 H          1 MOL1         0.0993
      12    H8      20.538766   20.480595   22.596076 H          1 MOL1         0.0993
      13    C4      19.557212   18.736512   21.726181 C.3        1 MOL1        -0.1338
      14    H9      19.696058   17.646759   21.706249 H          1 MOL1         0.0993
      15    H10     18.577605   18.914563   22.188789 H          1 MOL1         0.0993
      16    C5      19.508541   19.276616   20.276063 C.3        1 MOL1        -0.1313
      17    H11     19.359097   20.365336   20.289436 H          1 MOL1         0.0993
      18    H12     18.628613   18.852602   19.772232 H          1 MOL1         0.0993
      19    C6      20.767636   18.934235   19.447075 C.3        1 MOL1        -0.2328
      20    H13     21.658980   19.440196   19.837871 H          1 MOL1         0.1004
      21    H14     20.639177   19.253246   18.404642 H          1 MOL1         0.1004
      22    H15     20.957881   17.853127   19.445531 H          1 MOL1         0.1004
      23    C7      20.415842   19.438391   27.130550 C.3        1 MOL1        -0.0781
      24    H16     20.339607   19.070492   28.156183 H          1 MOL1         0.0978
      25    H17     21.417446   19.240574   26.743725 H          1 MOL1         0.0978
      26    H18     20.214700   20.511644   27.108110 H          1 MOL1         0.0978
@<TRIPOS>BOND
    1     1     2    1
    2     1     3    1
    3     1     4    1
    4     4     5    1
    5     4     6    1
    6     4     7    1
    7     7     8    1
    8     7     9    1
    9     7    10    1
   10    10    11    1
   11    10    12    1
   12    10    13    1
   13    13    14    1
   14    13    15    1
   15    13    16    1
   16    16    17    1
   17    16    18    1
   18    16    19    1
   19    19    20    1
   20    19    21    1
   21    19    22    1
   22     1    23    1
   23    23    24    1
   24    23    25    1
   25    23    26    1
@<TRIPOS>SUBSTRUCTURE
       1 MOL1            1 RESIDUE      1      MOL     
@<SCITEGIC>MOL_PROPERTY
VM2 Rank
SciTegic.value.IntegerValue
63

@<SCITEGIC>MOL_PROPERTY
Conf_Id
SciTegic.value.IntegerValue
734

@<SCITEGIC>MOL_PROPERTY
Probability
SciTegic.value.DoubleValue
0.49

@<SCITEGIC>MOL_PROPERTY
Sum Probability
SciTegic.value.DoubleValue
89.44

@<SCITEGIC>MOL_PROPERTY
Delta G
SciTegic.value.DoubleValue
1.590

@<SCITEGIC>MOL_PROPERTY
G
SciTegic.value.DoubleValue
77.056

@<SCITEGIC>MOL_PROPERTY
E
SciTegic.value.DoubleValue
44.546

@<SCITEGIC>MOL_PROPERTY
-TS
SciTegic.value.DoubleValue
32.510

@<SCITEGIC>MOL_PROPERTY
U+W
SciTegic.value.DoubleValue
23.084

@<SCITEGIC>MOL_PROPERTY
U
SciTegic.value.DoubleValue
72.298

@<SCITEGIC>MOL_PROPERTY
W
SciTegic.value.DoubleValue
-49.214

@<SCITEGIC>MOL_PROPERTY
W(PB)
SciTegic.value.DoubleValue
-51.498

@<SCITEGIC>MOL_PROPERTY
W(SA)
SciTegic.value.DoubleValue
2.284

@<SCITEGIC>MOL_PROPERTY
Valence
SciTegic.value.DoubleValue
2.869

@<SCITEGIC>MOL_PROPERTY
Coulomb
SciTegic.value.DoubleValue
68.765

@<SCITEGIC>MOL_PROPERTY
VdW
SciTegic.value.DoubleValue
0.665

@<SCITEGIC>MOL_PROPERTY
VdW6
SciTegic.value.DoubleValue
-7.141

@<SCITEGIC>MOL_PROPERTY
VdW12
SciTegic.value.DoubleValue
7.805

@<SCITEGIC>MOL_PROPERTY
Bond
SciTegic.value.DoubleValue
0.231

@<SCITEGIC>MOL_PROPERTY
Angle
SciTegic.value.DoubleValue
0.882

@<SCITEGIC>MOL_PROPERTY
Pdih
SciTegic.value.DoubleValue
1.756

@<SCITEGIC>MOL_PROPERTY
Idih
SciTegic.value.DoubleValue
0.000

@<SCITEGIC>MOL_PROPERTY
Tether
SciTegic.value.DoubleValue
0.000

@<TRIPOS>MOLECULE
guest-s12_vm2.mol2 : vm2 ligand conformer 64
          26          25           1
SMALL
USER_CHARGES
 
@<TRIPOS>ATOM
       1    N1      19.488980   18.661807   25.852989 N.4        1 MOL1        -0.4857
       2    H1      20.051470   17.929266   26.313168 H          1 MOL1         0.3650
       3    H2      18.634436   18.186084   25.524309 H          1 MOL1         0.3650
       4    C1      20.248959   19.243576   24.678189 C.3        1 MOL1         0.0209
       5    H3      21.149824   19.725458   25.066252 H          1 MOL1         0.0967
       6    H4      19.618555   20.009244   24.219689 H          1 MOL1         0.0967
       7    C2      20.638074   18.191116   23.622663 C.3        1 MOL1        -0.1378
       8    H5      21.241173   17.408053   24.101000 H          1 MOL1         0.0993
       9    H6      19.735139   17.695992   23.243231 H          1 MOL1         0.0993
      10    C3      21.444710   18.795117   22.446336 C.3        1 MOL1        -0.1338
      11    H7      21.706361   17.994401   21.741783 H          1 MOL1         0.0993
      12    H8      22.401511   19.175080   22.830411 H          1 MOL1         0.0993
      13    C4      20.726652   19.942271   21.685073 C.3        1 MOL1        -0.1338
      14    H9      20.616531   20.809045   22.350600 H          1 MOL1         0.0993
      15    H10     21.376952   20.280486   20.866585 H          1 MOL1         0.0993
      16    C5      19.337436   19.578413   21.101754 C.3        1 MOL1        -0.1313
      17    H11     18.924998   20.465252   20.600606 H          1 MOL1         0.0993
      18    H12     18.636036   19.338320   21.912018 H          1 MOL1         0.0993
      19    C6      19.384171   18.411769   20.089029 C.3        1 MOL1        -0.2328
      20    H13     19.687501   17.473356   20.569532 H          1 MOL1         0.1004
      21    H14     20.088764   18.624403   19.274620 H          1 MOL1         0.1004
      22    H15     18.394465   18.249769   19.642851 H          1 MOL1         0.1004
      23    C7      19.139018   19.765932   26.840967 C.3        1 MOL1        -0.0781
      24    H16     18.592452   19.333810   27.682196 H          1 MOL1         0.0978
      25    H17     20.059453   20.231986   27.199502 H          1 MOL1         0.0978
      26    H18     18.516987   20.511538   26.340875 H          1 MOL1         0.0978
@<TRIPOS>BOND
    1     1     2    1
    2     1     3    1
    3     1     4    1
    4     4     5    1
    5     4     6    1
    6     4     7    1
    7     7     8    1
    8     7     9    1
    9     7    10    1
   10    10    11    1
   11    10    12    1
   12    10    13    1
   13    13    14    1
   14    13    15    1
   15    13    16    1
   16    16    17    1
   17    16    18    1
   18    16    19    1
   19    19    20    1
   20    19    21    1
   21    19    22    1
   22     1    23    1
   23    23    24    1
   24    23    25    1
   25    23    26    1
@<TRIPOS>SUBSTRUCTURE
       1 MOL1            1 RESIDUE      1      MOL     
@<SCITEGIC>MOL_PROPERTY
VM2 Rank
SciTegic.value.IntegerValue
64

@<SCITEGIC>MOL_PROPERTY
Conf_Id
SciTegic.value.IntegerValue
385

@<SCITEGIC>MOL_PROPERTY
Probability
SciTegic.value.DoubleValue
0.42

@<SCITEGIC>MOL_PROPERTY
Sum Probability
SciTegic.value.DoubleValue
89.86

@<SCITEGIC>MOL_PROPERTY
Delta G
SciTegic.value.DoubleValue
1.692

@<SCITEGIC>MOL_PROPERTY
G
SciTegic.value.DoubleValue
77.158

@<SCITEGIC>MOL_PROPERTY
E
SciTegic.value.DoubleValue
44.330

@<SCITEGIC>MOL_PROPERTY
-TS
SciTegic.value.DoubleValue
32.828

@<SCITEGIC>MOL_PROPERTY
U+W
SciTegic.value.DoubleValue
22.868

@<SCITEGIC>MOL_PROPERTY
U
SciTegic.value.DoubleValue
72.454

@<SCITEGIC>MOL_PROPERTY
W
SciTegic.value.DoubleValue
-49.587

@<SCITEGIC>MOL_PROPERTY
W(PB)
SciTegic.value.DoubleValue
-51.821

@<SCITEGIC>MOL_PROPERTY
W(SA)
SciTegic.value.DoubleValue
2.234

@<SCITEGIC>MOL_PROPERTY
Valence
SciTegic.value.DoubleValue
2.909

@<SCITEGIC>MOL_PROPERTY
Coulomb
SciTegic.value.DoubleValue
69.434

@<SCITEGIC>MOL_PROPERTY
VdW
SciTegic.value.DoubleValue
0.111

@<SCITEGIC>MOL_PROPERTY
VdW6
SciTegic.value.DoubleValue
-7.764

@<SCITEGIC>MOL_PROPERTY
VdW12
SciTegic.value.DoubleValue
7.876

@<SCITEGIC>MOL_PROPERTY
Bond
SciTegic.value.DoubleValue
0.233

@<SCITEGIC>MOL_PROPERTY
Angle
SciTegic.value.DoubleValue
1.170

@<SCITEGIC>MOL_PROPERTY
Pdih
SciTegic.value.DoubleValue
1.506

@<SCITEGIC>MOL_PROPERTY
Idih
SciTegic.value.DoubleValue
0.000

@<SCITEGIC>MOL_PROPERTY
Tether
SciTegic.value.DoubleValue
0.000

@<TRIPOS>MOLECULE
guest-s12_vm2.mol2 : vm2 ligand conformer 65
          26          25           1
SMALL
USER_CHARGES
 
@<TRIPOS>ATOM
       1    N1      20.279441   18.915957   25.647323 N.4        1 MOL1        -0.4857
       2    H1      20.936180   18.275359   25.176900 H          1 MOL1         0.3650
       3    H2      19.698110   18.318806   26.255629 H          1 MOL1         0.3650
       4    C1      19.411418   19.614106   24.618962 C.3        1 MOL1         0.0209
       5    H3      20.058758   20.241959   24.001968 H          1 MOL1         0.0967
       6    H4      18.718450   20.265594   25.157384 H          1 MOL1         0.0967
       7    C2      18.613952   18.648110   23.719057 C.3        1 MOL1        -0.1378
       8    H5      17.937673   18.049974   24.344037 H          1 MOL1         0.0993
       9    H6      17.966194   19.235957   23.056262 H          1 MOL1         0.0993
      10    C3      19.501508   17.697581   22.872808 C.3        1 MOL1        -0.1338
      11    H7      18.852823   17.087733   22.228914 H          1 MOL1         0.0993
      12    H8      20.009364   16.986894   23.538559 H          1 MOL1         0.0993
      13    C4      20.564365   18.406666   21.993727 C.3        1 MOL1        -0.1338
      14    H9      21.281654   18.943929   22.628453 H          1 MOL1         0.0993
      15    H10     21.145329   17.638074   21.465388 H          1 MOL1         0.0993
      16    C5      19.957924   19.379609   20.955043 C.3        1 MOL1        -0.1313
      17    H11     19.429237   20.196457   21.464168 H          1 MOL1         0.0993
      18    H12     19.213905   18.851607   20.342341 H          1 MOL1         0.0993
      19    C6      21.043154   19.981324   20.036938 C.3        1 MOL1        -0.2328
      20    H13     21.568619   19.195712   19.478482 H          1 MOL1         0.1004
      21    H14     21.786021   20.542180   20.618980 H          1 MOL1         0.1004
      22    H15     20.596268   20.670208   19.308424 H          1 MOL1         0.1004
      23    C7      21.036238   19.946648   26.473142 C.3        1 MOL1        -0.0781
      24    H16     20.319652   20.593025   26.984622 H          1 MOL1         0.0978
      25    H17     21.657578   19.430451   27.208379 H          1 MOL1         0.0978
      26    H18     21.667030   20.544174   25.811352 H          1 MOL1         0.0978
@<TRIPOS>BOND
    1     1     2    1
    2     1     3    1
    3     1     4    1
    4     4     5    1
    5     4     6    1
    6     4     7    1
    7     7     8    1
    8     7     9    1
    9     7    10    1
   10    10    11    1
   11    10    12    1
   12    10    13    1
   13    13    14    1
   14    13    15    1
   15    13    16    1
   16    16    17    1
   17    16    18    1
   18    16    19    1
   19    19    20    1
   20    19    21    1
   21    19    22    1
   22     1    23    1
   23    23    24    1
   24    23    25    1
   25    23    26    1
@<TRIPOS>SUBSTRUCTURE
       1 MOL1            1 RESIDUE      1      MOL     
@<SCITEGIC>MOL_PROPERTY
VM2 Rank
SciTegic.value.IntegerValue
65

@<SCITEGIC>MOL_PROPERTY
Conf_Id
SciTegic.value.IntegerValue
1340

@<SCITEGIC>MOL_PROPERTY
Probability
SciTegic.value.DoubleValue
0.40

@<SCITEGIC>MOL_PROPERTY
Sum Probability
SciTegic.value.DoubleValue
90.26

@<SCITEGIC>MOL_PROPERTY
Delta G
SciTegic.value.DoubleValue
1.714

@<SCITEGIC>MOL_PROPERTY
G
SciTegic.value.DoubleValue
77.180

@<SCITEGIC>MOL_PROPERTY
E
SciTegic.value.DoubleValue
44.472

@<SCITEGIC>MOL_PROPERTY
-TS
SciTegic.value.DoubleValue
32.708

@<SCITEGIC>MOL_PROPERTY
U+W
SciTegic.value.DoubleValue
23.010

@<SCITEGIC>MOL_PROPERTY
U
SciTegic.value.DoubleValue
72.452

@<SCITEGIC>MOL_PROPERTY
W
SciTegic.value.DoubleValue
-49.442

@<SCITEGIC>MOL_PROPERTY
W(PB)
SciTegic.value.DoubleValue
-51.701

@<SCITEGIC>MOL_PROPERTY
W(SA)
SciTegic.value.DoubleValue
2.259

@<SCITEGIC>MOL_PROPERTY
Valence
SciTegic.value.DoubleValue
2.611

@<SCITEGIC>MOL_PROPERTY
Coulomb
SciTegic.value.DoubleValue
69.807

@<SCITEGIC>MOL_PROPERTY
VdW
SciTegic.value.DoubleValue
0.035

@<SCITEGIC>MOL_PROPERTY
VdW6
SciTegic.value.DoubleValue
-7.729

@<SCITEGIC>MOL_PROPERTY
VdW12
SciTegic.value.DoubleValue
7.764

@<SCITEGIC>MOL_PROPERTY
Bond
SciTegic.value.DoubleValue
0.213

@<SCITEGIC>MOL_PROPERTY
Angle
SciTegic.value.DoubleValue
0.953

@<SCITEGIC>MOL_PROPERTY
Pdih
SciTegic.value.DoubleValue
1.445

@<SCITEGIC>MOL_PROPERTY
Idih
SciTegic.value.DoubleValue
0.000

@<SCITEGIC>MOL_PROPERTY
Tether
SciTegic.value.DoubleValue
0.000

@<TRIPOS>MOLECULE
guest-s12_vm2.mol2 : vm2 ligand conformer 66
          26          25           1
SMALL
USER_CHARGES
 
@<TRIPOS>ATOM
       1    N1      19.771223   18.827345   25.922133 N.4        1 MOL1        -0.4857
       2    H1      20.297359   17.955508   26.088725 H          1 MOL1         0.3650
       3    H2      18.862709   18.531912   25.534362 H          1 MOL1         0.3650
       4    C1      20.507208   19.697548   24.921559 C.3        1 MOL1         0.0209
       5    H3      21.459197   19.985641   25.374691 H          1 MOL1         0.0967
       6    H4      19.916939   20.603593   24.763155 H          1 MOL1         0.0967
       7    C2      20.774391   19.009267   23.568394 C.3        1 MOL1        -0.1378
       8    H5      21.409362   19.675079   22.970740 H          1 MOL1         0.0993
       9    H6      21.349872   18.088569   23.732108 H          1 MOL1         0.0993
      10    C3      19.471989   18.692194   22.791232 C.3        1 MOL1        -0.1338
      11    H7      18.910874   19.619404   22.613999 H          1 MOL1         0.0993
      12    H8      18.821841   18.060103   23.410174 H          1 MOL1         0.0993
      13    C4      19.715324   17.956276   21.447837 C.3        1 MOL1        -0.1338
      14    H9      20.181697   16.982821   21.653088 H          1 MOL1         0.0993
      15    H10     18.742566   17.731516   20.989050 H          1 MOL1         0.0993
      16    C5      20.587525   18.720543   20.418889 C.3        1 MOL1        -0.1313
      17    H11     20.681985   18.103145   19.514635 H          1 MOL1         0.0993
      18    H12     21.608612   18.844967   20.803425 H          1 MOL1         0.0993
      19    C6      20.007593   20.097219   20.022119 C.3        1 MOL1        -0.2328
      20    H13     18.978669   20.000311   19.652174 H          1 MOL1         0.1004
      21    H14     20.609376   20.552760   19.225128 H          1 MOL1         0.1004
      22    H15     20.004200   20.792226   20.870972 H          1 MOL1         0.1004
      23    C7      19.572747   19.589607   27.224835 C.3        1 MOL1        -0.0781
      24    H16     18.987206   20.490395   27.028214 H          1 MOL1         0.0978
      25    H17     19.041912   18.952296   27.935587 H          1 MOL1         0.0978
      26    H18     20.548200   19.863888   27.632505 H          1 MOL1         0.0978
@<TRIPOS>BOND
    1     1     2    1
    2     1     3    1
    3     1     4    1
    4     4     5    1
    5     4     6    1
    6     4     7    1
    7     7     8    1
    8     7     9    1
    9     7    10    1
   10    10    11    1
   11    10    12    1
   12    10    13    1
   13    13    14    1
   14    13    15    1
   15    13    16    1
   16    16    17    1
   17    16    18    1
   18    16    19    1
   19    19    20    1
   20    19    21    1
   21    19    22    1
   22     1    23    1
   23    23    24    1
   24    23    25    1
   25    23    26    1
@<TRIPOS>SUBSTRUCTURE
       1 MOL1            1 RESIDUE      1      MOL     
@<SCITEGIC>MOL_PROPERTY
VM2 Rank
SciTegic.value.IntegerValue
66

@<SCITEGIC>MOL_PROPERTY
Conf_Id
SciTegic.value.IntegerValue
736

@<SCITEGIC>MOL_PROPERTY
Probability
SciTegic.value.DoubleValue
0.39

@<SCITEGIC>MOL_PROPERTY
Sum Probability
SciTegic.value.DoubleValue
90.65

@<SCITEGIC>MOL_PROPERTY
Delta G
SciTegic.value.DoubleValue
1.729

@<SCITEGIC>MOL_PROPERTY
G
SciTegic.value.DoubleValue
77.195

@<SCITEGIC>MOL_PROPERTY
E
SciTegic.value.DoubleValue
44.524

@<SCITEGIC>MOL_PROPERTY
-TS
SciTegic.value.DoubleValue
32.670

@<SCITEGIC>MOL_PROPERTY
U+W
SciTegic.value.DoubleValue
23.062

@<SCITEGIC>MOL_PROPERTY
U
SciTegic.value.DoubleValue
72.391

@<SCITEGIC>MOL_PROPERTY
W
SciTegic.value.DoubleValue
-49.329

@<SCITEGIC>MOL_PROPERTY
W(PB)
SciTegic.value.DoubleValue
-51.594

@<SCITEGIC>MOL_PROPERTY
W(SA)
SciTegic.value.DoubleValue
2.265

@<SCITEGIC>MOL_PROPERTY
Valence
SciTegic.value.DoubleValue
2.829

@<SCITEGIC>MOL_PROPERTY
Coulomb
SciTegic.value.DoubleValue
69.222

@<SCITEGIC>MOL_PROPERTY
VdW
SciTegic.value.DoubleValue
0.340

@<SCITEGIC>MOL_PROPERTY
VdW6
SciTegic.value.DoubleValue
-7.379

@<SCITEGIC>MOL_PROPERTY
VdW12
SciTegic.value.DoubleValue
7.719

@<SCITEGIC>MOL_PROPERTY
Bond
SciTegic.value.DoubleValue
0.228

@<SCITEGIC>MOL_PROPERTY
Angle
SciTegic.value.DoubleValue
1.104

@<SCITEGIC>MOL_PROPERTY
Pdih
SciTegic.value.DoubleValue
1.497

@<SCITEGIC>MOL_PROPERTY
Idih
SciTegic.value.DoubleValue
0.000

@<SCITEGIC>MOL_PROPERTY
Tether
SciTegic.value.DoubleValue
0.000

@<TRIPOS>MOLECULE
guest-s12_vm2.mol2 : vm2 ligand conformer 67
          26          25           1
SMALL
USER_CHARGES
 
@<TRIPOS>ATOM
       1    N1      19.695038   18.855741   25.626470 N.4        1 MOL1        -0.4857
       2    H1      20.341714   18.385218   26.278380 H          1 MOL1         0.3650
       3    H2      19.217249   18.098156   25.115833 H          1 MOL1         0.3650
       4    C1      20.472537   19.723467   24.656441 C.3        1 MOL1         0.0209
       5    H3      20.978774   20.498578   25.237361 H          1 MOL1         0.0967
       6    H4      19.755734   20.210695   23.991058 H          1 MOL1         0.0967
       7    C2      21.511135   18.946702   23.821645 C.3        1 MOL1        -0.1378
       8    H5      22.070338   19.658945   23.201601 H          1 MOL1         0.0993
       9    H6      22.249619   18.494421   24.496779 H          1 MOL1         0.0993
      10    C3      20.897368   17.841395   22.922210 C.3        1 MOL1        -0.1338
      11    H7      20.499751   17.037296   23.555884 H          1 MOL1         0.0993
      12    H8      21.700149   17.381269   22.329642 H          1 MOL1         0.0993
      13    C4      19.776408   18.325317   21.965904 C.3        1 MOL1        -0.1338
      14    H9      19.402733   17.458309   21.403710 H          1 MOL1         0.0993
      15    H10     18.922063   18.700416   22.545067 H          1 MOL1         0.0993
      16    C5      20.242863   19.409021   20.965273 C.3        1 MOL1        -0.1313
      17    H11     21.119780   19.048218   20.409763 H          1 MOL1         0.0993
      18    H12     20.557142   20.312704   21.504295 H          1 MOL1         0.0993
      19    C6      19.124572   19.783706   19.969412 C.3        1 MOL1        -0.2328
      20    H13     19.471430   20.554536   19.269048 H          1 MOL1         0.1004
      21    H14     18.244232   20.177128   20.494201 H          1 MOL1         0.1004
      22    H15     18.810509   18.911631   19.381177 H          1 MOL1         0.1004
      23    C7      18.688079   19.704650   26.389647 C.3        1 MOL1        -0.0781
      24    H16     17.996809   20.165883   25.680906 H          1 MOL1         0.0978
      25    H17     18.134906   19.067406   27.083200 H          1 MOL1         0.0978
      26    H18     19.220245   20.479762   26.945444 H          1 MOL1         0.0978
@<TRIPOS>BOND
    1     1     2    1
    2     1     3    1
    3     1     4    1
    4     4     5    1
    5     4     6    1
    6     4     7    1
    7     7     8    1
    8     7     9    1
    9     7    10    1
   10    10    11    1
   11    10    12    1
   12    10    13    1
   13    13    14    1
   14    13    15    1
   15    13    16    1
   16    16    17    1
   17    16    18    1
   18    16    19    1
   19    19    20    1
   20    19    21    1
   21    19    22    1
   22     1    23    1
   23    23    24    1
   24    23    25    1
   25    23    26    1
@<TRIPOS>SUBSTRUCTURE
       1 MOL1            1 RESIDUE      1      MOL     
@<SCITEGIC>MOL_PROPERTY
VM2 Rank
SciTegic.value.IntegerValue
67

@<SCITEGIC>MOL_PROPERTY
Conf_Id
SciTegic.value.IntegerValue
504

@<SCITEGIC>MOL_PROPERTY
Probability
SciTegic.value.DoubleValue
0.39

@<SCITEGIC>MOL_PROPERTY
Sum Probability
SciTegic.value.DoubleValue
91.04

@<SCITEGIC>MOL_PROPERTY
Delta G
SciTegic.value.DoubleValue
1.736

@<SCITEGIC>MOL_PROPERTY
G
SciTegic.value.DoubleValue
77.202

@<SCITEGIC>MOL_PROPERTY
E
SciTegic.value.DoubleValue
44.494

@<SCITEGIC>MOL_PROPERTY
-TS
SciTegic.value.DoubleValue
32.709

@<SCITEGIC>MOL_PROPERTY
U+W
SciTegic.value.DoubleValue
23.032

@<SCITEGIC>MOL_PROPERTY
U
SciTegic.value.DoubleValue
72.453

@<SCITEGIC>MOL_PROPERTY
W
SciTegic.value.DoubleValue
-49.421

@<SCITEGIC>MOL_PROPERTY
W(PB)
SciTegic.value.DoubleValue
-51.690

@<SCITEGIC>MOL_PROPERTY
W(SA)
SciTegic.value.DoubleValue
2.270

@<SCITEGIC>MOL_PROPERTY
Valence
SciTegic.value.DoubleValue
2.611

@<SCITEGIC>MOL_PROPERTY
Coulomb
SciTegic.value.DoubleValue
69.807

@<SCITEGIC>MOL_PROPERTY
VdW
SciTegic.value.DoubleValue
0.035

@<SCITEGIC>MOL_PROPERTY
VdW6
SciTegic.value.DoubleValue
-7.730

@<SCITEGIC>MOL_PROPERTY
VdW12
SciTegic.value.DoubleValue
7.765

@<SCITEGIC>MOL_PROPERTY
Bond
SciTegic.value.DoubleValue
0.213

@<SCITEGIC>MOL_PROPERTY
Angle
SciTegic.value.DoubleValue
0.953

@<SCITEGIC>MOL_PROPERTY
Pdih
SciTegic.value.DoubleValue
1.445

@<SCITEGIC>MOL_PROPERTY
Idih
SciTegic.value.DoubleValue
0.000

@<SCITEGIC>MOL_PROPERTY
Tether
SciTegic.value.DoubleValue
0.000

@<TRIPOS>MOLECULE
guest-s12_vm2.mol2 : vm2 ligand conformer 68
          26          25           1
SMALL
USER_CHARGES
 
@<TRIPOS>ATOM
       1    N1      20.503813   18.765660   25.888754 N.4        1 MOL1        -0.4857
       2    H1      21.457698   18.474756   25.624050 H          1 MOL1         0.3650
       3    H2      20.070213   17.931369   26.313872 H          1 MOL1         0.3650
       4    C1      19.725936   19.190002   24.659520 C.3        1 MOL1         0.0209
       5    H3      20.218956   20.070568   24.240694 H          1 MOL1         0.0967
       6    H4      18.721342   19.476975   24.980146 H          1 MOL1         0.0967
       7    C2      19.632536   18.088100   23.586998 C.3        1 MOL1        -0.1378
       8    H5      20.641246   17.788504   23.275300 H          1 MOL1         0.0993
       9    H6      19.168264   17.195884   24.027594 H          1 MOL1         0.0993
      10    C3      18.804839   18.524821   22.352731 C.3        1 MOL1        -0.1338
      11    H7      17.766421   18.700518   22.666056 H          1 MOL1         0.0993
      12    H8      18.760698   17.692814   21.637316 H          1 MOL1         0.0993
      13    C4      19.327445   19.799004   21.635487 C.3        1 MOL1        -0.1338
      14    H9      18.681307   20.004368   20.770887 H          1 MOL1         0.0993
      15    H10     19.212719   20.665351   22.300793 H          1 MOL1         0.0993
      16    C5      20.799055   19.728154   21.153909 C.3        1 MOL1        -0.1313
      17    H11     21.475809   19.629322   22.013195 H          1 MOL1         0.0993
      18    H12     21.057559   20.683674   20.676526 H          1 MOL1         0.0993
      19    C6      21.060846   18.583435   20.148954 C.3        1 MOL1        -0.2328
      20    H13     20.386883   18.654798   19.285469 H          1 MOL1         0.1004
      21    H14     20.920733   17.599654   20.613771 H          1 MOL1         0.1004
      22    H15     22.091744   18.628337   19.774696 H          1 MOL1         0.1004
      23    C7      20.553530   19.910824   26.890646 C.3        1 MOL1        -0.0781
      24    H16     21.045476   20.770200   26.429770 H          1 MOL1         0.0978
      25    H17     19.535151   20.178766   27.180583 H          1 MOL1         0.0978
      26    H18     21.115981   19.592226   27.771143 H          1 MOL1         0.0978
@<TRIPOS>BOND
    1     1     2    1
    2     1     3    1
    3     1     4    1
    4     4     5    1
    5     4     6    1
    6     4     7    1
    7     7     8    1
    8     7     9    1
    9     7    10    1
   10    10    11    1
   11    10    12    1
   12    10    13    1
   13    13    14    1
   14    13    15    1
   15    13    16    1
   16    16    17    1
   17    16    18    1
   18    16    19    1
   19    19    20    1
   20    19    21    1
   21    19    22    1
   22     1    23    1
   23    23    24    1
   24    23    25    1
   25    23    26    1
@<TRIPOS>SUBSTRUCTURE
       1 MOL1            1 RESIDUE      1      MOL     
@<SCITEGIC>MOL_PROPERTY
VM2 Rank
SciTegic.value.IntegerValue
68

@<SCITEGIC>MOL_PROPERTY
Conf_Id
SciTegic.value.IntegerValue
431

@<SCITEGIC>MOL_PROPERTY
Probability
SciTegic.value.DoubleValue
0.37

@<SCITEGIC>MOL_PROPERTY
Sum Probability
SciTegic.value.DoubleValue
91.41

@<SCITEGIC>MOL_PROPERTY
Delta G
SciTegic.value.DoubleValue
1.760

@<SCITEGIC>MOL_PROPERTY
G
SciTegic.value.DoubleValue
77.226

@<SCITEGIC>MOL_PROPERTY
E
SciTegic.value.DoubleValue
44.397

@<SCITEGIC>MOL_PROPERTY
-TS
SciTegic.value.DoubleValue
32.829

@<SCITEGIC>MOL_PROPERTY
U+W
SciTegic.value.DoubleValue
22.935

@<SCITEGIC>MOL_PROPERTY
U
SciTegic.value.DoubleValue
72.455

@<SCITEGIC>MOL_PROPERTY
W
SciTegic.value.DoubleValue
-49.520

@<SCITEGIC>MOL_PROPERTY
W(PB)
SciTegic.value.DoubleValue
-51.798

@<SCITEGIC>MOL_PROPERTY
W(SA)
SciTegic.value.DoubleValue
2.278

@<SCITEGIC>MOL_PROPERTY
Valence
SciTegic.value.DoubleValue
2.908

@<SCITEGIC>MOL_PROPERTY
Coulomb
SciTegic.value.DoubleValue
69.435

@<SCITEGIC>MOL_PROPERTY
VdW
SciTegic.value.DoubleValue
0.111

@<SCITEGIC>MOL_PROPERTY
VdW6
SciTegic.value.DoubleValue
-7.765

@<SCITEGIC>MOL_PROPERTY
VdW12
SciTegic.value.DoubleValue
7.877

@<SCITEGIC>MOL_PROPERTY
Bond
SciTegic.value.DoubleValue
0.233

@<SCITEGIC>MOL_PROPERTY
Angle
SciTegic.value.DoubleValue
1.170

@<SCITEGIC>MOL_PROPERTY
Pdih
SciTegic.value.DoubleValue
1.506

@<SCITEGIC>MOL_PROPERTY
Idih
SciTegic.value.DoubleValue
0.000

@<SCITEGIC>MOL_PROPERTY
Tether
SciTegic.value.DoubleValue
0.000

@<TRIPOS>MOLECULE
guest-s12_vm2.mol2 : vm2 ligand conformer 69
          26          25           1
SMALL
USER_CHARGES
 
@<TRIPOS>ATOM
       1    N1      20.189970   18.870307   25.937029 N.4        1 MOL1        -0.4857
       2    H1      21.164489   18.768473   25.616107 H          1 MOL1         0.3650
       3    H2      19.841576   17.908560   26.072437 H          1 MOL1         0.3650
       4    C1      19.364600   19.580169   24.881123 C.3        1 MOL1         0.0209
       5    H3      19.768172   20.588342   24.758054 H          1 MOL1         0.0967
       6    H4      18.344566   19.665606   25.264318 H          1 MOL1         0.0967
       7    C2      19.338307   18.861837   23.517495 C.3        1 MOL1        -0.1378
       8    H5      18.951997   17.842206   23.647048 H          1 MOL1         0.0993
       9    H6      18.624665   19.389008   22.872131 H          1 MOL1         0.0993
      10    C3      20.729094   18.821842   22.835678 C.3        1 MOL1        -0.1338
      11    H7      21.449305   18.330892   23.503201 H          1 MOL1         0.0993
      12    H8      21.100845   19.845045   22.691312 H          1 MOL1         0.0993
      13    C4      20.735156   18.061305   21.483996 C.3        1 MOL1        -0.1338
      14    H9      21.762935   18.042505   21.095951 H          1 MOL1         0.0993
      15    H10     20.463508   17.011875   21.663300 H          1 MOL1         0.0993
      16    C5      19.799739   18.639256   20.391045 C.3        1 MOL1        -0.1313
      17    H11     18.750381   18.550559   20.702410 H          1 MOL1         0.0993
      18    H12     19.896319   18.021913   19.486976 H          1 MOL1         0.0993
      19    C6      20.113647   20.107893   20.025606 C.3        1 MOL1        -0.2328
      20    H13     21.164041   20.225010   19.729139 H          1 MOL1         0.1004
      21    H14     19.916219   20.783075   20.867477 H          1 MOL1         0.1004
      22    H15     19.488939   20.437002   19.185200 H          1 MOL1         0.1004
      23    C7      20.137487   19.647390   27.245027 C.3        1 MOL1        -0.0781
      24    H16     19.100487   19.714816   27.581211 H          1 MOL1         0.0978
      25    H17     20.735458   19.125978   27.995812 H          1 MOL1         0.0978
      26    H18     20.540176   20.649756   27.083654 H          1 MOL1         0.0978
@<TRIPOS>BOND
    1     1     2    1
    2     1     3    1
    3     1     4    1
    4     4     5    1
    5     4     6    1
    6     4     7    1
    7     7     8    1
    8     7     9    1
    9     7    10    1
   10    10    11    1
   11    10    12    1
   12    10    13    1
   13    13    14    1
   14    13    15    1
   15    13    16    1
   16    16    17    1
   17    16    18    1
   18    16    19    1
   19    19    20    1
   20    19    21    1
   21    19    22    1
   22     1    23    1
   23    23    24    1
   24    23    25    1
   25    23    26    1
@<TRIPOS>SUBSTRUCTURE
       1 MOL1            1 RESIDUE      1      MOL     
@<SCITEGIC>MOL_PROPERTY
VM2 Rank
SciTegic.value.IntegerValue
69

@<SCITEGIC>MOL_PROPERTY
Conf_Id
SciTegic.value.IntegerValue
530

@<SCITEGIC>MOL_PROPERTY
Probability
SciTegic.value.DoubleValue
0.35

@<SCITEGIC>MOL_PROPERTY
Sum Probability
SciTegic.value.DoubleValue
91.76

@<SCITEGIC>MOL_PROPERTY
Delta G
SciTegic.value.DoubleValue
1.794

@<SCITEGIC>MOL_PROPERTY
G
SciTegic.value.DoubleValue
77.260

@<SCITEGIC>MOL_PROPERTY
E
SciTegic.value.DoubleValue
44.589

@<SCITEGIC>MOL_PROPERTY
-TS
SciTegic.value.DoubleValue
32.671

@<SCITEGIC>MOL_PROPERTY
U+W
SciTegic.value.DoubleValue
23.128

@<SCITEGIC>MOL_PROPERTY
U
SciTegic.value.DoubleValue
72.391

@<SCITEGIC>MOL_PROPERTY
W
SciTegic.value.DoubleValue
-49.264

@<SCITEGIC>MOL_PROPERTY
W(PB)
SciTegic.value.DoubleValue
-51.513

@<SCITEGIC>MOL_PROPERTY
W(SA)
SciTegic.value.DoubleValue
2.250

@<SCITEGIC>MOL_PROPERTY
Valence
SciTegic.value.DoubleValue
2.830

@<SCITEGIC>MOL_PROPERTY
Coulomb
SciTegic.value.DoubleValue
69.222

@<SCITEGIC>MOL_PROPERTY
VdW
SciTegic.value.DoubleValue
0.339

@<SCITEGIC>MOL_PROPERTY
VdW6
SciTegic.value.DoubleValue
-7.379

@<SCITEGIC>MOL_PROPERTY
VdW12
SciTegic.value.DoubleValue
7.718

@<SCITEGIC>MOL_PROPERTY
Bond
SciTegic.value.DoubleValue
0.228

@<SCITEGIC>MOL_PROPERTY
Angle
SciTegic.value.DoubleValue
1.104

@<SCITEGIC>MOL_PROPERTY
Pdih
SciTegic.value.DoubleValue
1.497

@<SCITEGIC>MOL_PROPERTY
Idih
SciTegic.value.DoubleValue
0.000

@<SCITEGIC>MOL_PROPERTY
Tether
SciTegic.value.DoubleValue
0.000

@<TRIPOS>MOLECULE
guest-s12_vm2.mol2 : vm2 ligand conformer 70
          26          25           1
SMALL
USER_CHARGES
 
@<TRIPOS>ATOM
       1    N1      20.505559   19.403697   25.618784 N.4        1 MOL1        -0.4857
       2    H1      20.949148   19.967197   24.877965 H          1 MOL1         0.3650
       3    H2      21.255543   18.805615   25.998826 H          1 MOL1         0.3650
       4    C1      19.404106   18.546097   25.027197 C.3        1 MOL1         0.0209
       5    H3      18.629945   19.212442   24.639704 H          1 MOL1         0.0967
       6    H4      18.969467   17.958515   25.839851 H          1 MOL1         0.0967
       7    C2      19.883989   17.597049   23.909411 C.3        1 MOL1        -0.1378
       8    H5      20.618355   16.895089   24.326257 H          1 MOL1         0.0993
       9    H6      19.033531   16.987127   23.576934 H          1 MOL1         0.0993
      10    C3      20.503666   18.318814   22.685831 C.3        1 MOL1        -0.1338
      11    H7      20.834523   17.553395   21.971941 H          1 MOL1         0.0993
      12    H8      21.407608   18.862927   22.990042 H          1 MOL1         0.0993
      13    C4      19.518183   19.289106   21.985617 C.3        1 MOL1        -0.1338
      14    H9      18.626550   18.737663   21.656799 H          1 MOL1         0.0993
      15    H10     19.168051   20.041220   22.704776 H          1 MOL1         0.0993
      16    C5      20.139150   20.032814   20.778111 C.3        1 MOL1        -0.1313
      17    H11     21.024856   20.596323   21.103278 H          1 MOL1         0.0993
      18    H12     19.417651   20.778402   20.415556 H          1 MOL1         0.0993
      19    C6      20.518148   19.098717   19.606147 C.3        1 MOL1        -0.2328
      20    H13     21.330252   18.414421   19.880804 H          1 MOL1         0.1004
      21    H14     20.860007   19.684899   18.743332 H          1 MOL1         0.1004
      22    H15     19.656714   18.499480   19.283913 H          1 MOL1         0.1004
      23    C7      19.935200   20.303705   26.705903 C.3        1 MOL1        -0.0781
      24    H16     20.738334   20.915985   27.122066 H          1 MOL1         0.0978
      25    H17     19.166901   20.947773   26.272543 H          1 MOL1         0.0978
      26    H18     19.498475   19.684156   27.492254 H          1 MOL1         0.0978
@<TRIPOS>BOND
    1     1     2    1
    2     1     3    1
    3     1     4    1
    4     4     5    1
    5     4     6    1
    6     4     7    1
    7     7     8    1
    8     7     9    1
    9     7    10    1
   10    10    11    1
   11    10    12    1
   12    10    13    1
   13    13    14    1
   14    13    15    1
   15    13    16    1
   16    16    17    1
   17    16    18    1
   18    16    19    1
   19    19    20    1
   20    19    21    1
   21    19    22    1
   22     1    23    1
   23    23    24    1
   24    23    25    1
   25    23    26    1
@<TRIPOS>SUBSTRUCTURE
       1 MOL1            1 RESIDUE      1      MOL     
@<SCITEGIC>MOL_PROPERTY
VM2 Rank
SciTegic.value.IntegerValue
70

@<SCITEGIC>MOL_PROPERTY
Conf_Id
SciTegic.value.IntegerValue
91

@<SCITEGIC>MOL_PROPERTY
Probability
SciTegic.value.DoubleValue
0.33

@<SCITEGIC>MOL_PROPERTY
Sum Probability
SciTegic.value.DoubleValue
92.09

@<SCITEGIC>MOL_PROPERTY
Delta G
SciTegic.value.DoubleValue
1.832

@<SCITEGIC>MOL_PROPERTY
G
SciTegic.value.DoubleValue
77.298

@<SCITEGIC>MOL_PROPERTY
E
SciTegic.value.DoubleValue
44.768

@<SCITEGIC>MOL_PROPERTY
-TS
SciTegic.value.DoubleValue
32.530

@<SCITEGIC>MOL_PROPERTY
U+W
SciTegic.value.DoubleValue
23.306

@<SCITEGIC>MOL_PROPERTY
U
SciTegic.value.DoubleValue
72.579

@<SCITEGIC>MOL_PROPERTY
W
SciTegic.value.DoubleValue
-49.273

@<SCITEGIC>MOL_PROPERTY
W(PB)
SciTegic.value.DoubleValue
-51.540

@<SCITEGIC>MOL_PROPERTY
W(SA)
SciTegic.value.DoubleValue
2.267

@<SCITEGIC>MOL_PROPERTY
Valence
SciTegic.value.DoubleValue
2.678

@<SCITEGIC>MOL_PROPERTY
Coulomb
SciTegic.value.DoubleValue
69.622

@<SCITEGIC>MOL_PROPERTY
VdW
SciTegic.value.DoubleValue
0.279

@<SCITEGIC>MOL_PROPERTY
VdW6
SciTegic.value.DoubleValue
-7.328

@<SCITEGIC>MOL_PROPERTY
VdW12
SciTegic.value.DoubleValue
7.608

@<SCITEGIC>MOL_PROPERTY
Bond
SciTegic.value.DoubleValue
0.212

@<SCITEGIC>MOL_PROPERTY
Angle
SciTegic.value.DoubleValue
0.911

@<SCITEGIC>MOL_PROPERTY
Pdih
SciTegic.value.DoubleValue
1.554

@<SCITEGIC>MOL_PROPERTY
Idih
SciTegic.value.DoubleValue
0.000

@<SCITEGIC>MOL_PROPERTY
Tether
SciTegic.value.DoubleValue
0.000

@<TRIPOS>MOLECULE
guest-s12_vm2.mol2 : vm2 ligand conformer 71
          26          25           1
SMALL
USER_CHARGES
 
@<TRIPOS>ATOM
       1    N1      19.502023   18.731754   25.755442 N.4        1 MOL1        -0.4857
       2    H1      19.516550   18.421507   26.739985 H          1 MOL1         0.3650
       3    H2      19.083982   17.947154   25.233694 H          1 MOL1         0.3650
       4    C1      20.925242   18.976759   25.278232 C.3        1 MOL1         0.0209
       5    H3      21.510262   18.087555   25.526535 H          1 MOL1         0.0967
       6    H4      21.327281   19.814769   25.853185 H          1 MOL1         0.0967
       7    C2      21.071841   19.268806   23.768988 C.3        1 MOL1        -0.1378
       8    H5      20.541265   20.197189   23.525021 H          1 MOL1         0.0993
       9    H6      22.132635   19.451416   23.552706 H          1 MOL1         0.0993
      10    C3      20.560565   18.105256   22.883441 C.3        1 MOL1        -0.1338
      11    H7      19.485218   17.954357   23.042378 H          1 MOL1         0.0993
      12    H8      21.048286   17.173483   23.201724 H          1 MOL1         0.0993
      13    C4      20.838043   18.311560   21.371907 C.3        1 MOL1        -0.1338
      14    H9      21.924057   18.344803   21.208571 H          1 MOL1         0.0993
      15    H10     20.479309   17.429130   20.824330 H          1 MOL1         0.0993
      16    C5      20.200075   19.580314   20.749908 C.3        1 MOL1        -0.1313
      17    H11     20.459532   19.614348   19.682538 H          1 MOL1         0.0993
      18    H12     20.640351   20.483257   21.193698 H          1 MOL1         0.0993
      19    C6      18.661391   19.627857   20.889624 C.3        1 MOL1        -0.2328
      20    H13     18.354957   19.716646   21.939234 H          1 MOL1         0.1004
      21    H14     18.199034   18.724586   20.471003 H          1 MOL1         0.1004
      22    H15     18.253162   20.493674   20.352461 H          1 MOL1         0.1004
      23    C7      18.648819   19.987693   25.619458 C.3        1 MOL1        -0.0781
      24    H16     18.588096   20.270649   24.566676 H          1 MOL1         0.0978
      25    H17     17.646946   19.782322   26.003014 H          1 MOL1         0.0978
      26    H18     19.105667   20.795555   26.195162 H          1 MOL1         0.0978
@<TRIPOS>BOND
    1     1     2    1
    2     1     3    1
    3     1     4    1
    4     4     5    1
    5     4     6    1
    6     4     7    1
    7     7     8    1
    8     7     9    1
    9     7    10    1
   10    10    11    1
   11    10    12    1
   12    10    13    1
   13    13    14    1
   14    13    15    1
   15    13    16    1
   16    16    17    1
   17    16    18    1
   18    16    19    1
   19    19    20    1
   20    19    21    1
   21    19    22    1
   22     1    23    1
   23    23    24    1
   24    23    25    1
   25    23    26    1
@<TRIPOS>SUBSTRUCTURE
       1 MOL1            1 RESIDUE      1      MOL     
@<SCITEGIC>MOL_PROPERTY
VM2 Rank
SciTegic.value.IntegerValue
71

@<SCITEGIC>MOL_PROPERTY
Conf_Id
SciTegic.value.IntegerValue
1117

@<SCITEGIC>MOL_PROPERTY
Probability
SciTegic.value.DoubleValue
0.31

@<SCITEGIC>MOL_PROPERTY
Sum Probability
SciTegic.value.DoubleValue
92.40

@<SCITEGIC>MOL_PROPERTY
Delta G
SciTegic.value.DoubleValue
1.871

@<SCITEGIC>MOL_PROPERTY
G
SciTegic.value.DoubleValue
77.337

@<SCITEGIC>MOL_PROPERTY
E
SciTegic.value.DoubleValue
44.375

@<SCITEGIC>MOL_PROPERTY
-TS
SciTegic.value.DoubleValue
32.963

@<SCITEGIC>MOL_PROPERTY
U+W
SciTegic.value.DoubleValue
22.913

@<SCITEGIC>MOL_PROPERTY
U
SciTegic.value.DoubleValue
72.925

@<SCITEGIC>MOL_PROPERTY
W
SciTegic.value.DoubleValue
-50.012

@<SCITEGIC>MOL_PROPERTY
W(PB)
SciTegic.value.DoubleValue
-52.194

@<SCITEGIC>MOL_PROPERTY
W(SA)
SciTegic.value.DoubleValue
2.182

@<SCITEGIC>MOL_PROPERTY
Valence
SciTegic.value.DoubleValue
3.007

@<SCITEGIC>MOL_PROPERTY
Coulomb
SciTegic.value.DoubleValue
69.583

@<SCITEGIC>MOL_PROPERTY
VdW
SciTegic.value.DoubleValue
0.336

@<SCITEGIC>MOL_PROPERTY
VdW6
SciTegic.value.DoubleValue
-8.608

@<SCITEGIC>MOL_PROPERTY
VdW12
SciTegic.value.DoubleValue
8.943

@<SCITEGIC>MOL_PROPERTY
Bond
SciTegic.value.DoubleValue
0.266

@<SCITEGIC>MOL_PROPERTY
Angle
SciTegic.value.DoubleValue
1.183

@<SCITEGIC>MOL_PROPERTY
Pdih
SciTegic.value.DoubleValue
1.559

@<SCITEGIC>MOL_PROPERTY
Idih
SciTegic.value.DoubleValue
0.000

@<SCITEGIC>MOL_PROPERTY
Tether
SciTegic.value.DoubleValue
0.000

@<TRIPOS>MOLECULE
guest-s12_vm2.mol2 : vm2 ligand conformer 72
          26          25           1
SMALL
USER_CHARGES
 
@<TRIPOS>ATOM
       1    N1      20.034558   19.228378   26.079629 N.4        1 MOL1        -0.4857
       2    H1      20.654041   19.731061   26.734878 H          1 MOL1         0.3650
       3    H2      19.856336   18.316566   26.528151 H          1 MOL1         0.3650
       4    C1      20.749433   19.031082   24.753711 C.3        1 MOL1         0.0209
       5    H3      21.741917   18.630109   24.974471 H          1 MOL1         0.0967
       6    H4      20.874923   20.013609   24.292517 H          1 MOL1         0.0967
       7    C2      20.030794   18.078912   23.774638 C.3        1 MOL1        -0.1378
       8    H5      19.870278   17.111351   24.268018 H          1 MOL1         0.0993
       9    H6      19.034835   18.469358   23.532328 H          1 MOL1         0.0993
      10    C3      20.833964   17.849628   22.470349 C.3        1 MOL1        -0.1338
      11    H7      20.281230   17.152824   21.826182 H          1 MOL1         0.0993
      12    H8      21.775557   17.340209   22.717745 H          1 MOL1         0.0993
      13    C4      21.163965   19.141538   21.674591 C.3        1 MOL1        -0.1338
      14    H9      21.859769   19.760683   22.256699 H          1 MOL1         0.0993
      15    H10     21.710355   18.862093   20.763244 H          1 MOL1         0.0993
      16    C5      19.937997   20.003390   21.278414 C.3        1 MOL1        -0.1313
      17    H11     20.294032   20.889799   20.735058 H          1 MOL1         0.0993
      18    H12     19.434966   20.384458   22.177315 H          1 MOL1         0.0993
      19    C6      18.921002   19.251047   20.390429 C.3        1 MOL1        -0.2328
      20    H13     19.404141   18.850972   19.489631 H          1 MOL1         0.1004
      21    H14     18.117708   19.926343   20.068681 H          1 MOL1         0.1004
      22    H15     18.455237   18.416922   20.929683 H          1 MOL1         0.1004
      23    C7      18.736286   20.006026   25.895239 C.3        1 MOL1        -0.0781
      24    H16     18.270698   20.160015   26.871249 H          1 MOL1         0.0978
      25    H17     18.958749   20.971886   25.436507 H          1 MOL1         0.0978
      26    H18     18.061490   19.436874   25.252818 H          1 MOL1         0.0978
@<TRIPOS>BOND
    1     1     2    1
    2     1     3    1
    3     1     4    1
    4     4     5    1
    5     4     6    1
    6     4     7    1
    7     7     8    1
    8     7     9    1
    9     7    10    1
   10    10    11    1
   11    10    12    1
   12    10    13    1
   13    13    14    1
   14    13    15    1
   15    13    16    1
   16    16    17    1
   17    16    18    1
   18    16    19    1
   19    19    20    1
   20    19    21    1
   21    19    22    1
   22     1    23    1
   23    23    24    1
   24    23    25    1
   25    23    26    1
@<TRIPOS>SUBSTRUCTURE
       1 MOL1            1 RESIDUE      1      MOL     
@<SCITEGIC>MOL_PROPERTY
VM2 Rank
SciTegic.value.IntegerValue
72

@<SCITEGIC>MOL_PROPERTY
Conf_Id
SciTegic.value.IntegerValue
511

@<SCITEGIC>MOL_PROPERTY
Probability
SciTegic.value.DoubleValue
0.30

@<SCITEGIC>MOL_PROPERTY
Sum Probability
SciTegic.value.DoubleValue
92.71

@<SCITEGIC>MOL_PROPERTY
Delta G
SciTegic.value.DoubleValue
1.879

@<SCITEGIC>MOL_PROPERTY
G
SciTegic.value.DoubleValue
77.345

@<SCITEGIC>MOL_PROPERTY
E
SciTegic.value.DoubleValue
44.338

@<SCITEGIC>MOL_PROPERTY
-TS
SciTegic.value.DoubleValue
33.007

@<SCITEGIC>MOL_PROPERTY
U+W
SciTegic.value.DoubleValue
22.876

@<SCITEGIC>MOL_PROPERTY
U
SciTegic.value.DoubleValue
72.761

@<SCITEGIC>MOL_PROPERTY
W
SciTegic.value.DoubleValue
-49.885

@<SCITEGIC>MOL_PROPERTY
W(PB)
SciTegic.value.DoubleValue
-52.087

@<SCITEGIC>MOL_PROPERTY
W(SA)
SciTegic.value.DoubleValue
2.202

@<SCITEGIC>MOL_PROPERTY
Valence
SciTegic.value.DoubleValue
3.172

@<SCITEGIC>MOL_PROPERTY
Coulomb
SciTegic.value.DoubleValue
69.298

@<SCITEGIC>MOL_PROPERTY
VdW
SciTegic.value.DoubleValue
0.291

@<SCITEGIC>MOL_PROPERTY
VdW6
SciTegic.value.DoubleValue
-8.615

@<SCITEGIC>MOL_PROPERTY
VdW12
SciTegic.value.DoubleValue
8.906

@<SCITEGIC>MOL_PROPERTY
Bond
SciTegic.value.DoubleValue
0.269

@<SCITEGIC>MOL_PROPERTY
Angle
SciTegic.value.DoubleValue
1.270

@<SCITEGIC>MOL_PROPERTY
Pdih
SciTegic.value.DoubleValue
1.633

@<SCITEGIC>MOL_PROPERTY
Idih
SciTegic.value.DoubleValue
0.000

@<SCITEGIC>MOL_PROPERTY
Tether
SciTegic.value.DoubleValue
0.000

@<TRIPOS>MOLECULE
guest-s12_vm2.mol2 : vm2 ligand conformer 73
          26          25           1
SMALL
USER_CHARGES
 
@<TRIPOS>ATOM
       1    N1      19.377106   19.288055   25.578799 N.4        1 MOL1        -0.4857
       2    H1      18.739118   18.547729   25.909705 H          1 MOL1         0.3650
       3    H2      18.881516   19.755297   24.804721 H          1 MOL1         0.3650
       4    C1      20.668114   18.675646   25.071944 C.3        1 MOL1         0.0209
       5    H3      21.154811   18.182515   25.917236 H          1 MOL1         0.0967
       6    H4      21.316402   19.487771   24.734801 H          1 MOL1         0.0967
       7    C2      20.469913   17.657074   23.930168 C.3        1 MOL1        -0.1378
       8    H5      21.447452   17.234520   23.662421 H          1 MOL1         0.0993
       9    H6      19.865670   16.817912   24.299625 H          1 MOL1         0.0993
      10    C3      19.804046   18.247065   22.661067 C.3        1 MOL1        -0.1338
      11    H7      18.789560   18.594495   22.897345 H          1 MOL1         0.0993
      12    H8      19.685979   17.435642   21.931257 H          1 MOL1         0.0993
      13    C4      20.618993   19.401959   22.024657 C.3        1 MOL1        -0.1338
      14    H9      20.758171   20.204236   22.761161 H          1 MOL1         0.0993
      15    H10     21.624682   19.045059   21.763058 H          1 MOL1         0.0993
      16    C5      19.946296   20.013035   20.771332 C.3        1 MOL1        -0.1313
      17    H11     20.525180   20.892074   20.454959 H          1 MOL1         0.0993
      18    H12     18.944139   20.382816   21.029589 H          1 MOL1         0.0993
      19    C6      19.847730   19.030030   19.582359 C.3        1 MOL1        -0.2328
      20    H13     20.833227   18.620344   19.325569 H          1 MOL1         0.1004
      21    H14     19.455397   19.540944   18.693558 H          1 MOL1         0.1004
      22    H15     19.174108   18.193252   19.804276 H          1 MOL1         0.1004
      23    C7      19.675802   20.277136   26.696675 C.3        1 MOL1        -0.0781
      24    H16     20.326012   21.066639   26.313503 H          1 MOL1         0.0978
      25    H17     18.738164   20.710944   27.051281 H          1 MOL1         0.0978
      26    H18     20.172957   19.753307   27.516039 H          1 MOL1         0.0978
@<TRIPOS>BOND
    1     1     2    1
    2     1     3    1
    3     1     4    1
    4     4     5    1
    5     4     6    1
    6     4     7    1
    7     7     8    1
    8     7     9    1
    9     7    10    1
   10    10    11    1
   11    10    12    1
   12    10    13    1
   13    13    14    1
   14    13    15    1
   15    13    16    1
   16    16    17    1
   17    16    18    1
   18    16    19    1
   19    19    20    1
   20    19    21    1
   21    19    22    1
   22     1    23    1
   23    23    24    1
   24    23    25    1
   25    23    26    1
@<TRIPOS>SUBSTRUCTURE
       1 MOL1            1 RESIDUE      1      MOL     
@<SCITEGIC>MOL_PROPERTY
VM2 Rank
SciTegic.value.IntegerValue
73

@<SCITEGIC>MOL_PROPERTY
Conf_Id
SciTegic.value.IntegerValue
944

@<SCITEGIC>MOL_PROPERTY
Probability
SciTegic.value.DoubleValue
0.30

@<SCITEGIC>MOL_PROPERTY
Sum Probability
SciTegic.value.DoubleValue
93.01

@<SCITEGIC>MOL_PROPERTY
Delta G
SciTegic.value.DoubleValue
1.887

@<SCITEGIC>MOL_PROPERTY
G
SciTegic.value.DoubleValue
77.353

@<SCITEGIC>MOL_PROPERTY
E
SciTegic.value.DoubleValue
44.823

@<SCITEGIC>MOL_PROPERTY
-TS
SciTegic.value.DoubleValue
32.529

@<SCITEGIC>MOL_PROPERTY
U+W
SciTegic.value.DoubleValue
23.362

@<SCITEGIC>MOL_PROPERTY
U
SciTegic.value.DoubleValue
72.579

@<SCITEGIC>MOL_PROPERTY
W
SciTegic.value.DoubleValue
-49.217

@<SCITEGIC>MOL_PROPERTY
W(PB)
SciTegic.value.DoubleValue
-51.496

@<SCITEGIC>MOL_PROPERTY
W(SA)
SciTegic.value.DoubleValue
2.279

@<SCITEGIC>MOL_PROPERTY
Valence
SciTegic.value.DoubleValue
2.677

@<SCITEGIC>MOL_PROPERTY
Coulomb
SciTegic.value.DoubleValue
69.622

@<SCITEGIC>MOL_PROPERTY
VdW
SciTegic.value.DoubleValue
0.280

@<SCITEGIC>MOL_PROPERTY
VdW6
SciTegic.value.DoubleValue
-7.328

@<SCITEGIC>MOL_PROPERTY
VdW12
SciTegic.value.DoubleValue
7.608

@<SCITEGIC>MOL_PROPERTY
Bond
SciTegic.value.DoubleValue
0.212

@<SCITEGIC>MOL_PROPERTY
Angle
SciTegic.value.DoubleValue
0.911

@<SCITEGIC>MOL_PROPERTY
Pdih
SciTegic.value.DoubleValue
1.555

@<SCITEGIC>MOL_PROPERTY
Idih
SciTegic.value.DoubleValue
0.000

@<SCITEGIC>MOL_PROPERTY
Tether
SciTegic.value.DoubleValue
0.000

@<TRIPOS>MOLECULE
guest-s12_vm2.mol2 : vm2 ligand conformer 74
          26          25           1
SMALL
USER_CHARGES
 
@<TRIPOS>ATOM
       1    N1      20.484149   18.832990   25.790208 N.4        1 MOL1        -0.4857
       2    H1      21.088682   18.153760   25.304654 H          1 MOL1         0.3650
       3    H2      20.464279   18.519201   26.773534 H          1 MOL1         0.3650
       4    C1      19.077814   18.786411   25.212833 C.3        1 MOL1         0.0209
       5    H3      18.474297   19.520826   25.752156 H          1 MOL1         0.0967
       6    H4      18.670257   17.794933   25.426041 H          1 MOL1         0.0967
       7    C2      18.980792   19.053280   23.694948 C.3        1 MOL1        -0.1378
       8    H5      17.922846   19.017394   23.403619 H          1 MOL1         0.0993
       9    H6      19.326761   20.072044   23.481992 H          1 MOL1         0.0993
      10    C3      19.779214   18.024755   22.855835 C.3        1 MOL1        -0.1338
      11    H7      19.470603   17.010873   23.145972 H          1 MOL1         0.0993
      12    H8      20.848922   18.095088   23.090741 H          1 MOL1         0.0993
      13    C4      19.572027   18.180981   21.327124 C.3        1 MOL1        -0.1338
      14    H9      20.140536   17.394144   20.812443 H          1 MOL1         0.0993
      15    H10     18.516196   17.993324   21.087929 H          1 MOL1         0.0993
      16    C5      19.979946   19.557551   20.742078 C.3        1 MOL1        -0.1313
      17    H11     19.334914   20.348602   21.147383 H          1 MOL1         0.0993
      18    H12     19.794365   19.545623   19.658948 H          1 MOL1         0.0993
      19    C6      21.463006   19.916711   20.988785 C.3        1 MOL1        -0.2328
      20    H13     21.722765   20.851398   20.475253 H          1 MOL1         0.1004
      21    H14     22.127903   19.129677   20.610097 H          1 MOL1         0.1004
      22    H15     21.670686   20.058544   22.056596 H          1 MOL1         0.1004
      23    C7      21.071052   20.237322   25.705188 C.3        1 MOL1        -0.0781
      24    H16     20.420180   20.931009   26.241796 H          1 MOL1         0.0978
      25    H17     22.064467   20.237518   26.159247 H          1 MOL1         0.0978
      26    H18     21.146249   20.534347   24.657226 H          1 MOL1         0.0978
@<TRIPOS>BOND
    1     1     2    1
    2     1     3    1
    3     1     4    1
    4     4     5    1
    5     4     6    1
    6     4     7    1
    7     7     8    1
    8     7     9    1
    9     7    10    1
   10    10    11    1
   11    10    12    1
   12    10    13    1
   13    13    14    1
   14    13    15    1
   15    13    16    1
   16    16    17    1
   17    16    18    1
   18    16    19    1
   19    19    20    1
   20    19    21    1
   21    19    22    1
   22     1    23    1
   23    23    24    1
   24    23    25    1
   25    23    26    1
@<TRIPOS>SUBSTRUCTURE
       1 MOL1            1 RESIDUE      1      MOL     
@<SCITEGIC>MOL_PROPERTY
VM2 Rank
SciTegic.value.IntegerValue
74

@<SCITEGIC>MOL_PROPERTY
Conf_Id
SciTegic.value.IntegerValue
272

@<SCITEGIC>MOL_PROPERTY
Probability
SciTegic.value.DoubleValue
0.30

@<SCITEGIC>MOL_PROPERTY
Sum Probability
SciTegic.value.DoubleValue
93.30

@<SCITEGIC>MOL_PROPERTY
Delta G
SciTegic.value.DoubleValue
1.894

@<SCITEGIC>MOL_PROPERTY
G
SciTegic.value.DoubleValue
77.360

@<SCITEGIC>MOL_PROPERTY
E
SciTegic.value.DoubleValue
44.397

@<SCITEGIC>MOL_PROPERTY
-TS
SciTegic.value.DoubleValue
32.963

@<SCITEGIC>MOL_PROPERTY
U+W
SciTegic.value.DoubleValue
22.936

@<SCITEGIC>MOL_PROPERTY
U
SciTegic.value.DoubleValue
72.925

@<SCITEGIC>MOL_PROPERTY
W
SciTegic.value.DoubleValue
-49.988

@<SCITEGIC>MOL_PROPERTY
W(PB)
SciTegic.value.DoubleValue
-52.181

@<SCITEGIC>MOL_PROPERTY
W(SA)
SciTegic.value.DoubleValue
2.192

@<SCITEGIC>MOL_PROPERTY
Valence
SciTegic.value.DoubleValue
3.007

@<SCITEGIC>MOL_PROPERTY
Coulomb
SciTegic.value.DoubleValue
69.583

@<SCITEGIC>MOL_PROPERTY
VdW
SciTegic.value.DoubleValue
0.335

@<SCITEGIC>MOL_PROPERTY
VdW6
SciTegic.value.DoubleValue
-8.608

@<SCITEGIC>MOL_PROPERTY
VdW12
SciTegic.value.DoubleValue
8.943

@<SCITEGIC>MOL_PROPERTY
Bond
SciTegic.value.DoubleValue
0.266

@<SCITEGIC>MOL_PROPERTY
Angle
SciTegic.value.DoubleValue
1.183

@<SCITEGIC>MOL_PROPERTY
Pdih
SciTegic.value.DoubleValue
1.559

@<SCITEGIC>MOL_PROPERTY
Idih
SciTegic.value.DoubleValue
0.000

@<SCITEGIC>MOL_PROPERTY
Tether
SciTegic.value.DoubleValue
0.000

@<TRIPOS>MOLECULE
guest-s12_vm2.mol2 : vm2 ligand conformer 75
          26          25           1
SMALL
USER_CHARGES
 
@<TRIPOS>ATOM
       1    N1      19.840354   19.208468   26.072715 N.4        1 MOL1        -0.4857
       2    H1      20.168190   18.348679   26.539213 H          1 MOL1         0.3650
       3    H2      19.087392   19.570193   26.679347 H          1 MOL1         0.3650
       4    C1      19.275021   18.879558   24.701494 C.3        1 MOL1         0.0209
       5    H3      18.985169   19.819384   24.225554 H          1 MOL1         0.0967
       6    H4      18.371704   18.283789   24.855169 H          1 MOL1         0.0967
       7    C2      20.238787   18.100221   23.782017 C.3        1 MOL1        -0.1378
       8    H5      21.149191   18.686495   23.607250 H          1 MOL1         0.0993
       9    H6      20.557464   17.181878   24.292366 H          1 MOL1         0.0993
      10    C3      19.592261   17.722039   22.426363 C.3        1 MOL1        -0.1338
      11    H7      18.758782   17.030241   22.610860 H          1 MOL1         0.0993
      12    H8      20.318705   17.156677   21.827490 H          1 MOL1         0.0993
      13    C4      19.063310   18.925724   21.600220 C.3        1 MOL1        -0.1338
      14    H9      18.650226   18.547728   20.654881 H          1 MOL1         0.0993
      15    H10     18.217262   19.386445   22.127735 H          1 MOL1         0.0993
      16    C5      20.113363   20.021426   21.284676 C.3        1 MOL1        -0.1313
      17    H11     20.464306   20.490244   22.213828 H          1 MOL1         0.0993
      18    H12     19.623667   20.820936   20.711352 H          1 MOL1         0.0993
      19    C6      21.321594   19.497712   20.475533 C.3        1 MOL1        -0.2328
      20    H13     21.908156   18.771758   21.052102 H          1 MOL1         0.1004
      21    H14     21.991485   20.324380   20.205916 H          1 MOL1         0.1004
      22    H15     20.994071   19.014277   19.546050 H          1 MOL1         0.1004
      23    C7      20.963311   20.234853   25.973982 C.3        1 MOL1        -0.0781
      24    H16     21.782952   19.819131   25.384616 H          1 MOL1         0.0978
      25    H17     20.582048   21.138601   25.493684 H          1 MOL1         0.0978
      26    H18     21.318363   20.473328   26.979043 H          1 MOL1         0.0978
@<TRIPOS>BOND
    1     1     2    1
    2     1     3    1
    3     1     4    1
    4     4     5    1
    5     4     6    1
    6     4     7    1
    7     7     8    1
    8     7     9    1
    9     7    10    1
   10    10    11    1
   11    10    12    1
   12    10    13    1
   13    13    14    1
   14    13    15    1
   15    13    16    1
   16    16    17    1
   17    16    18    1
   18    16    19    1
   19    19    20    1
   20    19    21    1
   21    19    22    1
   22     1    23    1
   23    23    24    1
   24    23    25    1
   25    23    26    1
@<TRIPOS>SUBSTRUCTURE
       1 MOL1            1 RESIDUE      1      MOL     
@<SCITEGIC>MOL_PROPERTY
VM2 Rank
SciTegic.value.IntegerValue
75

@<SCITEGIC>MOL_PROPERTY
Conf_Id
SciTegic.value.IntegerValue
1060

@<SCITEGIC>MOL_PROPERTY
Probability
SciTegic.value.DoubleValue
0.29

@<SCITEGIC>MOL_PROPERTY
Sum Probability
SciTegic.value.DoubleValue
93.60

@<SCITEGIC>MOL_PROPERTY
Delta G
SciTegic.value.DoubleValue
1.900

@<SCITEGIC>MOL_PROPERTY
G
SciTegic.value.DoubleValue
77.366

@<SCITEGIC>MOL_PROPERTY
E
SciTegic.value.DoubleValue
44.359

@<SCITEGIC>MOL_PROPERTY
-TS
SciTegic.value.DoubleValue
33.007

@<SCITEGIC>MOL_PROPERTY
U+W
SciTegic.value.DoubleValue
22.897

@<SCITEGIC>MOL_PROPERTY
U
SciTegic.value.DoubleValue
72.761

@<SCITEGIC>MOL_PROPERTY
W
SciTegic.value.DoubleValue
-49.864

@<SCITEGIC>MOL_PROPERTY
W(PB)
SciTegic.value.DoubleValue
-52.061

@<SCITEGIC>MOL_PROPERTY
W(SA)
SciTegic.value.DoubleValue
2.196

@<SCITEGIC>MOL_PROPERTY
Valence
SciTegic.value.DoubleValue
3.172

@<SCITEGIC>MOL_PROPERTY
Coulomb
SciTegic.value.DoubleValue
69.298

@<SCITEGIC>MOL_PROPERTY
VdW
SciTegic.value.DoubleValue
0.291

@<SCITEGIC>MOL_PROPERTY
VdW6
SciTegic.value.DoubleValue
-8.615

@<SCITEGIC>MOL_PROPERTY
VdW12
SciTegic.value.DoubleValue
8.906

@<SCITEGIC>MOL_PROPERTY
Bond
SciTegic.value.DoubleValue
0.269

@<SCITEGIC>MOL_PROPERTY
Angle
SciTegic.value.DoubleValue
1.270

@<SCITEGIC>MOL_PROPERTY
Pdih
SciTegic.value.DoubleValue
1.633

@<SCITEGIC>MOL_PROPERTY
Idih
SciTegic.value.DoubleValue
0.000

@<SCITEGIC>MOL_PROPERTY
Tether
SciTegic.value.DoubleValue
0.000

@<TRIPOS>MOLECULE
guest-s12_vm2.mol2 : vm2 ligand conformer 76
          26          25           1
SMALL
USER_CHARGES
 
@<TRIPOS>ATOM
       1    N1      20.678046   18.990056   25.403679 N.4        1 MOL1        -0.4857
       2    H1      21.285419   19.073953   24.574749 H          1 MOL1         0.3650
       3    H2      20.872603   18.056268   25.797141 H          1 MOL1         0.3650
       4    C1      19.222636   19.088774   24.990401 C.3        1 MOL1         0.0209
       5    H3      19.055224   20.089482   24.585102 H          1 MOL1         0.0967
       6    H4      18.614012   18.981519   25.891865 H          1 MOL1         0.0967
       7    C2      18.795137   18.028939   23.954033 C.3        1 MOL1        -0.1378
       8    H5      18.915799   17.028727   24.390848 H          1 MOL1         0.0993
       9    H6      17.722097   18.146980   23.752890 H          1 MOL1         0.0993
      10    C3      19.576870   18.103345   22.618236 C.3        1 MOL1        -0.1338
      11    H7      19.206519   17.312332   21.951635 H          1 MOL1         0.0993
      12    H8      20.635331   17.878301   22.800023 H          1 MOL1         0.0993
      13    C4      19.436045   19.473588   21.907906 C.3        1 MOL1        -0.1338
      14    H9      18.369321   19.717813   21.809000 H          1 MOL1         0.0993
      15    H10     19.879425   20.267724   22.523372 H          1 MOL1         0.0993
      16    C5      20.079928   19.504303   20.500752 C.3        1 MOL1        -0.1313
      17    H11     19.843942   20.466928   20.025839 H          1 MOL1         0.0993
      18    H12     19.625982   18.729977   19.866587 H          1 MOL1         0.0993
      19    C6      21.614960   19.323607   20.524271 C.3        1 MOL1        -0.2328
      20    H13     22.091014   20.070074   21.173187 H          1 MOL1         0.1004
      21    H14     22.030864   19.442970   19.515455 H          1 MOL1         0.1004
      22    H15     21.898600   18.325737   20.880870 H          1 MOL1         0.1004
      23    C7      21.004377   20.077388   26.417721 C.3        1 MOL1        -0.0781
      24    H16     20.369914   19.949698   27.297532 H          1 MOL1         0.0978
      25    H17     22.054876   19.995348   26.705507 H          1 MOL1         0.0978
      26    H18     20.820396   21.055324   25.967501 H          1 MOL1         0.0978
@<TRIPOS>BOND
    1     1     2    1
    2     1     3    1
    3     1     4    1
    4     4     5    1
    5     4     6    1
    6     4     7    1
    7     7     8    1
    8     7     9    1
    9     7    10    1
   10    10    11    1
   11    10    12    1
   12    10    13    1
   13    13    14    1
   14    13    15    1
   15    13    16    1
   16    16    17    1
   17    16    18    1
   18    16    19    1
   19    19    20    1
   20    19    21    1
   21    19    22    1
   22     1    23    1
   23    23    24    1
   24    23    25    1
   25    23    26    1
@<TRIPOS>SUBSTRUCTURE
       1 MOL1            1 RESIDUE      1      MOL     
@<SCITEGIC>MOL_PROPERTY
VM2 Rank
SciTegic.value.IntegerValue
76

@<SCITEGIC>MOL_PROPERTY
Conf_Id
SciTegic.value.IntegerValue
132

@<SCITEGIC>MOL_PROPERTY
Probability
SciTegic.value.DoubleValue
0.29

@<SCITEGIC>MOL_PROPERTY
Sum Probability
SciTegic.value.DoubleValue
93.89

@<SCITEGIC>MOL_PROPERTY
Delta G
SciTegic.value.DoubleValue
1.903

@<SCITEGIC>MOL_PROPERTY
G
SciTegic.value.DoubleValue
77.369

@<SCITEGIC>MOL_PROPERTY
E
SciTegic.value.DoubleValue
44.802

@<SCITEGIC>MOL_PROPERTY
-TS
SciTegic.value.DoubleValue
32.567

@<SCITEGIC>MOL_PROPERTY
U+W
SciTegic.value.DoubleValue
23.340

@<SCITEGIC>MOL_PROPERTY
U
SciTegic.value.DoubleValue
72.649

@<SCITEGIC>MOL_PROPERTY
W
SciTegic.value.DoubleValue
-49.309

@<SCITEGIC>MOL_PROPERTY
W(PB)
SciTegic.value.DoubleValue
-51.569

@<SCITEGIC>MOL_PROPERTY
W(SA)
SciTegic.value.DoubleValue
2.259

@<SCITEGIC>MOL_PROPERTY
Valence
SciTegic.value.DoubleValue
2.608

@<SCITEGIC>MOL_PROPERTY
Coulomb
SciTegic.value.DoubleValue
69.872

@<SCITEGIC>MOL_PROPERTY
VdW
SciTegic.value.DoubleValue
0.169

@<SCITEGIC>MOL_PROPERTY
VdW6
SciTegic.value.DoubleValue
-7.459

@<SCITEGIC>MOL_PROPERTY
VdW12
SciTegic.value.DoubleValue
7.628

@<SCITEGIC>MOL_PROPERTY
Bond
SciTegic.value.DoubleValue
0.205

@<SCITEGIC>MOL_PROPERTY
Angle
SciTegic.value.DoubleValue
0.826

@<SCITEGIC>MOL_PROPERTY
Pdih
SciTegic.value.DoubleValue
1.577

@<SCITEGIC>MOL_PROPERTY
Idih
SciTegic.value.DoubleValue
0.000

@<SCITEGIC>MOL_PROPERTY
Tether
SciTegic.value.DoubleValue
0.000

@<TRIPOS>MOLECULE
guest-s12_vm2.mol2 : vm2 ligand conformer 77
          26          25           1
SMALL
USER_CHARGES
 
@<TRIPOS>ATOM
       1    N1      19.775894   18.416215   25.530561 N.4        1 MOL1        -0.4857
       2    H1      20.306387   17.575937   25.253073 H          1 MOL1         0.3650
       3    H2      18.871133   18.347003   25.040963 H          1 MOL1         0.3650
       4    C1      20.511740   19.666886   25.089914 C.3        1 MOL1         0.0209
       5    H3      21.460992   19.698906   25.630739 H          1 MOL1         0.0967
       6    H4      19.917161   20.532480   25.392639 H          1 MOL1         0.0967
       7    C2      20.784522   19.729429   23.574299 C.3        1 MOL1        -0.1378
       8    H5      21.400322   20.614841   23.368147 H          1 MOL1         0.0993
       9    H6      21.380317   18.856057   23.280172 H          1 MOL1         0.0993
      10    C3      19.482938   19.803745   22.737513 C.3        1 MOL1        -0.1338
      11    H7      18.861434   20.626569   23.117317 H          1 MOL1         0.0993
      12    H8      18.891346   18.889628   22.874392 H          1 MOL1         0.0993
      13    C4      19.733941   20.039700   21.225630 C.3        1 MOL1        -0.1338
      14    H9      18.764108   20.118673   20.715306 H          1 MOL1         0.0993
      15    H10     20.223051   21.014483   21.092157 H          1 MOL1         0.0993
      16    C5      20.584764   18.953286   20.519187 C.3        1 MOL1        -0.1313
      17    H11     21.602096   18.939005   20.932666 H          1 MOL1         0.0993
      18    H12     20.695318   19.229420   19.461217 H          1 MOL1         0.0993
      19    C6      19.968130   17.538365   20.601793 C.3        1 MOL1        -0.2328
      20    H13     18.941903   17.531677   20.212245 H          1 MOL1         0.1004
      21    H14     19.946962   17.168091   21.634178 H          1 MOL1         0.1004
      22    H15     20.557019   16.827137   20.008313 H          1 MOL1         0.1004
      23    C7      19.566071   18.442373   27.038102 C.3        1 MOL1        -0.0781
      24    H16     20.537736   18.484366   27.535125 H          1 MOL1         0.0978
      25    H17     18.976335   19.322585   27.303382 H          1 MOL1         0.0978
      26    H18     19.035229   17.537332   27.341780 H          1 MOL1         0.0978
@<TRIPOS>BOND
    1     1     2    1
    2     1     3    1
    3     1     4    1
    4     4     5    1
    5     4     6    1
    6     4     7    1
    7     7     8    1
    8     7     9    1
    9     7    10    1
   10    10    11    1
   11    10    12    1
   12    10    13    1
   13    13    14    1
   14    13    15    1
   15    13    16    1
   16    16    17    1
   17    16    18    1
   18    16    19    1
   19    19    20    1
   20    19    21    1
   21    19    22    1
   22     1    23    1
   23    23    24    1
   24    23    25    1
   25    23    26    1
@<TRIPOS>SUBSTRUCTURE
       1 MOL1            1 RESIDUE      1      MOL     
@<SCITEGIC>MOL_PROPERTY
VM2 Rank
SciTegic.value.IntegerValue
77

@<SCITEGIC>MOL_PROPERTY
Conf_Id
SciTegic.value.IntegerValue
568

@<SCITEGIC>MOL_PROPERTY
Probability
SciTegic.value.DoubleValue
0.28

@<SCITEGIC>MOL_PROPERTY
Sum Probability
SciTegic.value.DoubleValue
94.17

@<SCITEGIC>MOL_PROPERTY
Delta G
SciTegic.value.DoubleValue
1.921

@<SCITEGIC>MOL_PROPERTY
G
SciTegic.value.DoubleValue
77.387

@<SCITEGIC>MOL_PROPERTY
E
SciTegic.value.DoubleValue
44.700

@<SCITEGIC>MOL_PROPERTY
-TS
SciTegic.value.DoubleValue
32.687

@<SCITEGIC>MOL_PROPERTY
U+W
SciTegic.value.DoubleValue
23.238

@<SCITEGIC>MOL_PROPERTY
U
SciTegic.value.DoubleValue
72.709

@<SCITEGIC>MOL_PROPERTY
W
SciTegic.value.DoubleValue
-49.471

@<SCITEGIC>MOL_PROPERTY
W(PB)
SciTegic.value.DoubleValue
-51.723

@<SCITEGIC>MOL_PROPERTY
W(SA)
SciTegic.value.DoubleValue
2.252

@<SCITEGIC>MOL_PROPERTY
Valence
SciTegic.value.DoubleValue
2.790

@<SCITEGIC>MOL_PROPERTY
Coulomb
SciTegic.value.DoubleValue
69.679

@<SCITEGIC>MOL_PROPERTY
VdW
SciTegic.value.DoubleValue
0.240

@<SCITEGIC>MOL_PROPERTY
VdW6
SciTegic.value.DoubleValue
-7.473

@<SCITEGIC>MOL_PROPERTY
VdW12
SciTegic.value.DoubleValue
7.714

@<SCITEGIC>MOL_PROPERTY
Bond
SciTegic.value.DoubleValue
0.222

@<SCITEGIC>MOL_PROPERTY
Angle
SciTegic.value.DoubleValue
1.030

@<SCITEGIC>MOL_PROPERTY
Pdih
SciTegic.value.DoubleValue
1.538

@<SCITEGIC>MOL_PROPERTY
Idih
SciTegic.value.DoubleValue
0.000

@<SCITEGIC>MOL_PROPERTY
Tether
SciTegic.value.DoubleValue
0.000

@<TRIPOS>MOLECULE
guest-s12_vm2.mol2 : vm2 ligand conformer 78
          26          25           1
SMALL
USER_CHARGES
 
@<TRIPOS>ATOM
       1    N1      19.307553   18.849370   25.355126 N.4        1 MOL1        -0.4857
       2    H1      19.279439   17.892756   25.740773 H          1 MOL1         0.3650
       3    H2      18.755384   18.814172   24.485107 H          1 MOL1         0.3650
       4    C1      20.737955   19.244295   25.044076 C.3        1 MOL1         0.0209
       5    H3      21.291036   19.256290   25.986691 H          1 MOL1         0.0967
       6    H4      20.726803   20.261039   24.644306 H          1 MOL1         0.0967
       7    C2      21.443096   18.300719   24.047829 C.3        1 MOL1        -0.1378
       8    H5      22.481254   18.635481   23.921449 H          1 MOL1         0.0993
       9    H6      21.497627   17.293720   24.482307 H          1 MOL1         0.0993
      10    C3      20.757998   18.224545   22.660087 C.3        1 MOL1        -0.1338
      11    H7      19.757134   17.788137   22.768948 H          1 MOL1         0.0993
      12    H8      21.326867   17.529919   22.026759 H          1 MOL1         0.0993
      13    C4      20.667272   19.599919   21.951507 C.3        1 MOL1        -0.1338
      14    H9      20.030045   20.283164   22.528703 H          1 MOL1         0.0993
      15    H10     21.666520   20.056175   21.925737 H          1 MOL1         0.0993
      16    C5      20.130637   19.509446   20.502562 C.3        1 MOL1        -0.1313
      17    H11     20.775413   18.847787   19.907342 H          1 MOL1         0.0993
      18    H12     20.199175   20.503277   20.038363 H          1 MOL1         0.0993
      19    C6      18.666330   19.021077   20.419925 C.3        1 MOL1        -0.2328
      20    H13     18.566658   17.983941   20.763104 H          1 MOL1         0.1004
      21    H14     18.306531   19.060717   19.383631 H          1 MOL1         0.1004
      22    H15     18.004574   19.650924   21.028450 H          1 MOL1         0.1004
      23    C7      18.697158   19.840629   26.335887 C.3        1 MOL1        -0.0781
      24    H16     18.710019   20.838739   25.892584 H          1 MOL1         0.0978
      25    H17     17.667611   19.545129   26.549924 H          1 MOL1         0.0978
      26    H18     19.281060   19.838042   27.258909 H          1 MOL1         0.0978
@<TRIPOS>BOND
    1     1     2    1
    2     1     3    1
    3     1     4    1
    4     4     5    1
    5     4     6    1
    6     4     7    1
    7     7     8    1
    8     7     9    1
    9     7    10    1
   10    10    11    1
   11    10    12    1
   12    10    13    1
   13    13    14    1
   14    13    15    1
   15    13    16    1
   16    16    17    1
   17    16    18    1
   18    16    19    1
   19    19    20    1
   20    19    21    1
   21    19    22    1
   22     1    23    1
   23    23    24    1
   24    23    25    1
   25    23    26    1
@<TRIPOS>SUBSTRUCTURE
       1 MOL1            1 RESIDUE      1      MOL     
@<SCITEGIC>MOL_PROPERTY
VM2 Rank
SciTegic.value.IntegerValue
78

@<SCITEGIC>MOL_PROPERTY
Conf_Id
SciTegic.value.IntegerValue
65

@<SCITEGIC>MOL_PROPERTY
Probability
SciTegic.value.DoubleValue
0.27

@<SCITEGIC>MOL_PROPERTY
Sum Probability
SciTegic.value.DoubleValue
94.45

@<SCITEGIC>MOL_PROPERTY
Delta G
SciTegic.value.DoubleValue
1.942

@<SCITEGIC>MOL_PROPERTY
G
SciTegic.value.DoubleValue
77.408

@<SCITEGIC>MOL_PROPERTY
E
SciTegic.value.DoubleValue
44.840

@<SCITEGIC>MOL_PROPERTY
-TS
SciTegic.value.DoubleValue
32.567

@<SCITEGIC>MOL_PROPERTY
U+W
SciTegic.value.DoubleValue
23.378

@<SCITEGIC>MOL_PROPERTY
U
SciTegic.value.DoubleValue
72.649

@<SCITEGIC>MOL_PROPERTY
W
SciTegic.value.DoubleValue
-49.271

@<SCITEGIC>MOL_PROPERTY
W(PB)
SciTegic.value.DoubleValue
-51.523

@<SCITEGIC>MOL_PROPERTY
W(SA)
SciTegic.value.DoubleValue
2.252

@<SCITEGIC>MOL_PROPERTY
Valence
SciTegic.value.DoubleValue
2.608

@<SCITEGIC>MOL_PROPERTY
Coulomb
SciTegic.value.DoubleValue
69.872

@<SCITEGIC>MOL_PROPERTY
VdW
SciTegic.value.DoubleValue
0.169

@<SCITEGIC>MOL_PROPERTY
VdW6
SciTegic.value.DoubleValue
-7.459

@<SCITEGIC>MOL_PROPERTY
VdW12
SciTegic.value.DoubleValue
7.628

@<SCITEGIC>MOL_PROPERTY
Bond
SciTegic.value.DoubleValue
0.205

@<SCITEGIC>MOL_PROPERTY
Angle
SciTegic.value.DoubleValue
0.826

@<SCITEGIC>MOL_PROPERTY
Pdih
SciTegic.value.DoubleValue
1.577

@<SCITEGIC>MOL_PROPERTY
Idih
SciTegic.value.DoubleValue
0.000

@<SCITEGIC>MOL_PROPERTY
Tether
SciTegic.value.DoubleValue
0.000

@<TRIPOS>MOLECULE
guest-s12_vm2.mol2 : vm2 ligand conformer 79
          26          25           1
SMALL
USER_CHARGES
 
@<TRIPOS>ATOM
       1    N1      20.125516   18.964854   26.427560 N.4        1 MOL1        -0.4857
       2    H1      20.815381   18.209918   26.563132 H          1 MOL1         0.3650
       3    H2      19.683933   19.085393   27.352905 H          1 MOL1         0.3650
       4    C1      19.065312   18.533720   25.423150 C.3        1 MOL1         0.0209
       5    H3      18.360293   19.357434   25.286436 H          1 MOL1         0.0967
       6    H4      18.523191   17.707919   25.891079 H          1 MOL1         0.0967
       7    C2      19.589281   18.046987   24.053309 C.3        1 MOL1        -0.1378
       8    H5      20.555767   17.541302   24.179122 H          1 MOL1         0.0993
       9    H6      18.890886   17.287860   23.676793 H          1 MOL1         0.0993
      10    C3      19.696863   19.175772   22.999644 C.3        1 MOL1        -0.1338
      11    H7      20.403952   19.944129   23.333282 H          1 MOL1         0.0993
      12    H8      18.721019   19.669977   22.895013 H          1 MOL1         0.0993
      13    C4      20.149998   18.635038   21.624247 C.3        1 MOL1        -0.1338
      14    H9      21.124375   18.137748   21.728217 H          1 MOL1         0.0993
      15    H10     19.439795   17.872126   21.276306 H          1 MOL1         0.0993
      16    C5      20.255613   19.758697   20.569002 C.3        1 MOL1        -0.1313
      17    H11     20.967542   20.523201   20.910575 H          1 MOL1         0.0993
      18    H12     19.282682   20.258211   20.460016 H          1 MOL1         0.0993
      19    C6      20.708139   19.214740   19.197073 C.3        1 MOL1        -0.2328
      20    H13     20.777205   20.026767   18.461638 H          1 MOL1         0.1004
      21    H14     19.997008   18.471979   18.812625 H          1 MOL1         0.1004
      22    H15     21.695019   18.738930   19.266870 H          1 MOL1         0.1004
      23    C7      20.817278   20.260192   26.023015 C.3        1 MOL1        -0.0781
      24    H16     21.483937   20.574360   26.829203 H          1 MOL1         0.0978
      25    H17     21.400040   20.089077   25.116515 H          1 MOL1         0.0978
      26    H18     20.063956   21.030755   25.845507 H          1 MOL1         0.0978
@<TRIPOS>BOND
    1     1     2    1
    2     1     3    1
    3     1     4    1
    4     4     5    1
    5     4     6    1
    6     4     7    1
    7     7     8    1
    8     7     9    1
    9     7    10    1
   10    10    11    1
   11    10    12    1
   12    10    13    1
   13    13    14    1
   14    13    15    1
   15    13    16    1
   16    16    17    1
   17    16    18    1
   18    16    19    1
   19    19    20    1
   20    19    21    1
   21    19    22    1
   22     1    23    1
   23    23    24    1
   24    23    25    1
   25    23    26    1
@<TRIPOS>SUBSTRUCTURE
       1 MOL1            1 RESIDUE      1      MOL     
@<SCITEGIC>MOL_PROPERTY
VM2 Rank
SciTegic.value.IntegerValue
79

@<SCITEGIC>MOL_PROPERTY
Conf_Id
SciTegic.value.IntegerValue
818

@<SCITEGIC>MOL_PROPERTY
Probability
SciTegic.value.DoubleValue
0.27

@<SCITEGIC>MOL_PROPERTY
Sum Probability
SciTegic.value.DoubleValue
94.72

@<SCITEGIC>MOL_PROPERTY
Delta G
SciTegic.value.DoubleValue
1.943

@<SCITEGIC>MOL_PROPERTY
G
SciTegic.value.DoubleValue
77.409

@<SCITEGIC>MOL_PROPERTY
E
SciTegic.value.DoubleValue
45.185

@<SCITEGIC>MOL_PROPERTY
-TS
SciTegic.value.DoubleValue
32.224

@<SCITEGIC>MOL_PROPERTY
U+W
SciTegic.value.DoubleValue
23.723

@<SCITEGIC>MOL_PROPERTY
U
SciTegic.value.DoubleValue
72.994

@<SCITEGIC>MOL_PROPERTY
W
SciTegic.value.DoubleValue
-49.271

@<SCITEGIC>MOL_PROPERTY
W(PB)
SciTegic.value.DoubleValue
-51.555

@<SCITEGIC>MOL_PROPERTY
W(SA)
SciTegic.value.DoubleValue
2.284

@<SCITEGIC>MOL_PROPERTY
Valence
SciTegic.value.DoubleValue
3.858

@<SCITEGIC>MOL_PROPERTY
Coulomb
SciTegic.value.DoubleValue
68.737

@<SCITEGIC>MOL_PROPERTY
VdW
SciTegic.value.DoubleValue
0.399

@<SCITEGIC>MOL_PROPERTY
VdW6
SciTegic.value.DoubleValue
-6.842

@<SCITEGIC>MOL_PROPERTY
VdW12
SciTegic.value.DoubleValue
7.241

@<SCITEGIC>MOL_PROPERTY
Bond
SciTegic.value.DoubleValue
0.196

@<SCITEGIC>MOL_PROPERTY
Angle
SciTegic.value.DoubleValue
0.972

@<SCITEGIC>MOL_PROPERTY
Pdih
SciTegic.value.DoubleValue
2.691

@<SCITEGIC>MOL_PROPERTY
Idih
SciTegic.value.DoubleValue
0.000

@<SCITEGIC>MOL_PROPERTY
Tether
SciTegic.value.DoubleValue
0.000

@<TRIPOS>MOLECULE
guest-s12_vm2.mol2 : vm2 ligand conformer 80
          26          25           1
SMALL
USER_CHARGES
 
@<TRIPOS>ATOM
       1    N1      20.293957   18.468477   25.548833 N.4        1 MOL1        -0.4857
       2    H1      21.226342   18.584682   25.124285 H          1 MOL1         0.3650
       3    H2      19.962563   17.541238   25.240781 H          1 MOL1         0.3650
       4    C1      19.356044   19.550270   25.048969 C.3        1 MOL1         0.0209
       5    H3      19.743247   20.514918   25.386529 H          1 MOL1         0.0967
       6    H4      18.383989   19.388371   25.521723 H          1 MOL1         0.0967
       7    C2      19.183128   19.567928   23.517564 C.3        1 MOL1        -0.1378
       8    H5      18.795698   18.595351   23.188550 H          1 MOL1         0.0993
       9    H6      18.419017   20.314099   23.262558 H          1 MOL1         0.0993
      10    C3      20.499072   19.906442   22.773548 C.3        1 MOL1        -0.1338
      11    H7      21.250159   19.127894   22.958090 H          1 MOL1         0.0993
      12    H8      20.915620   20.834093   23.190089 H          1 MOL1         0.0993
      13    C4      20.312653   20.098117   21.246140 C.3        1 MOL1        -0.1338
      14    H9      19.649294   20.956475   21.071732 H          1 MOL1         0.0993
      15    H10     21.280524   20.372786   20.804521 H          1 MOL1         0.0993
      16    C5      19.747657   18.868632   20.489567 C.3        1 MOL1        -0.1313
      17    H11     19.658577   19.124558   19.424514 H          1 MOL1         0.0993
      18    H12     18.727266   18.648482   20.830840 H          1 MOL1         0.0993
      19    C6      20.627204   17.604885   20.625236 C.3        1 MOL1        -0.2328
      20    H13     21.658795   17.806103   20.308584 H          1 MOL1         0.1004
      21    H14     20.235333   16.794537   19.997044 H          1 MOL1         0.1004
      22    H15     20.649545   17.239051   21.659178 H          1 MOL1         0.1004
      23    C7      20.388285   18.525248   27.067144 C.3        1 MOL1        -0.0781
      24    H16     21.066484   17.742213   27.413577 H          1 MOL1         0.0978
      25    H17     20.770453   19.503534   27.366876 H          1 MOL1         0.0978
      26    H18     19.395429   18.368946   27.494618 H          1 MOL1         0.0978
@<TRIPOS>BOND
    1     1     2    1
    2     1     3    1
    3     1     4    1
    4     4     5    1
    5     4     6    1
    6     4     7    1
    7     7     8    1
    8     7     9    1
    9     7    10    1
   10    10    11    1
   11    10    12    1
   12    10    13    1
   13    13    14    1
   14    13    15    1
   15    13    16    1
   16    16    17    1
   17    16    18    1
   18    16    19    1
   19    19    20    1
   20    19    21    1
   21    19    22    1
   22     1    23    1
   23    23    24    1
   24    23    25    1
   25    23    26    1
@<TRIPOS>SUBSTRUCTURE
       1 MOL1            1 RESIDUE      1      MOL     
@<SCITEGIC>MOL_PROPERTY
VM2 Rank
SciTegic.value.IntegerValue
80

@<SCITEGIC>MOL_PROPERTY
Conf_Id
SciTegic.value.IntegerValue
1369

@<SCITEGIC>MOL_PROPERTY
Probability
SciTegic.value.DoubleValue
0.26

@<SCITEGIC>MOL_PROPERTY
Sum Probability
SciTegic.value.DoubleValue
94.98

@<SCITEGIC>MOL_PROPERTY
Delta G
SciTegic.value.DoubleValue
1.963

@<SCITEGIC>MOL_PROPERTY
G
SciTegic.value.DoubleValue
77.429

@<SCITEGIC>MOL_PROPERTY
E
SciTegic.value.DoubleValue
44.743

@<SCITEGIC>MOL_PROPERTY
-TS
SciTegic.value.DoubleValue
32.686

@<SCITEGIC>MOL_PROPERTY
U+W
SciTegic.value.DoubleValue
23.281

@<SCITEGIC>MOL_PROPERTY
U
SciTegic.value.DoubleValue
72.710

@<SCITEGIC>MOL_PROPERTY
W
SciTegic.value.DoubleValue
-49.429

@<SCITEGIC>MOL_PROPERTY
W(PB)
SciTegic.value.DoubleValue
-51.677

@<SCITEGIC>MOL_PROPERTY
W(SA)
SciTegic.value.DoubleValue
2.249

@<SCITEGIC>MOL_PROPERTY
Valence
SciTegic.value.DoubleValue
2.790

@<SCITEGIC>MOL_PROPERTY
Coulomb
SciTegic.value.DoubleValue
69.679

@<SCITEGIC>MOL_PROPERTY
VdW
SciTegic.value.DoubleValue
0.240

@<SCITEGIC>MOL_PROPERTY
VdW6
SciTegic.value.DoubleValue
-7.473

@<SCITEGIC>MOL_PROPERTY
VdW12
SciTegic.value.DoubleValue
7.714

@<SCITEGIC>MOL_PROPERTY
Bond
SciTegic.value.DoubleValue
0.222

@<SCITEGIC>MOL_PROPERTY
Angle
SciTegic.value.DoubleValue
1.030

@<SCITEGIC>MOL_PROPERTY
Pdih
SciTegic.value.DoubleValue
1.538

@<SCITEGIC>MOL_PROPERTY
Idih
SciTegic.value.DoubleValue
0.000

@<SCITEGIC>MOL_PROPERTY
Tether
SciTegic.value.DoubleValue
0.000

@<TRIPOS>MOLECULE
guest-s12_vm2.mol2 : vm2 ligand conformer 81
          26          25           1
SMALL
USER_CHARGES
 
@<TRIPOS>ATOM
       1    N1      20.177805   18.510005   26.002113 N.4        1 MOL1        -0.4857
       2    H1      21.112791   18.271414   25.639506 H          1 MOL1         0.3650
       3    H2      19.987997   17.808660   26.735543 H          1 MOL1         0.3650
       4    C1      19.140153   18.384250   24.897277 C.3        1 MOL1         0.0209
       5    H3      18.170756   18.654335   25.323668 H          1 MOL1         0.0967
       6    H4      19.097634   17.331216   24.607601 H          1 MOL1         0.0967
       7    C2      19.405714   19.239961   23.639145 C.3        1 MOL1        -0.1378
       8    H5      18.564917   19.092775   22.950098 H          1 MOL1         0.0993
       9    H6      19.405980   20.304676   23.905410 H          1 MOL1         0.0993
      10    C3      20.733099   18.869578   22.931164 C.3        1 MOL1        -0.1338
      11    H7      20.720389   17.808253   22.649626 H          1 MOL1         0.0993
      12    H8      21.566017   18.985510   23.637029 H          1 MOL1         0.0993
      13    C4      21.037146   19.744013   21.686852 C.3        1 MOL1        -0.1338
      14    H9      21.151816   20.789560   22.004524 H          1 MOL1         0.0993
      15    H10     22.012691   19.446439   21.278203 H          1 MOL1         0.0993
      16    C5      19.980918   19.679462   20.553825 C.3        1 MOL1        -0.1313
      17    H11     20.309782   20.331589   19.732638 H          1 MOL1         0.0993
      18    H12     19.025200   20.094726   20.900385 H          1 MOL1         0.0993
      19    C6      19.760157   18.254079   19.998395 C.3        1 MOL1        -0.2328
      20    H13     19.317807   17.592172   20.753248 H          1 MOL1         0.1004
      21    H14     20.706441   17.810189   19.663077 H          1 MOL1         0.1004
      22    H15     19.077322   18.277591   19.139308 H          1 MOL1         0.1004
      23    C7      20.173008   19.908654   26.608229 C.3        1 MOL1        -0.0781
      24    H16     19.176663   20.126954   26.998640 H          1 MOL1         0.0978
      25    H17     20.903887   19.949300   27.418907 H          1 MOL1         0.0978
      26    H18     20.437653   20.636508   25.838586 H          1 MOL1         0.0978
@<TRIPOS>BOND
    1     1     2    1
    2     1     3    1
    3     1     4    1
    4     4     5    1
    5     4     6    1
    6     4     7    1
    7     7     8    1
    8     7     9    1
    9     7    10    1
   10    10    11    1
   11    10    12    1
   12    10    13    1
   13    13    14    1
   14    13    15    1
   15    13    16    1
   16    16    17    1
   17    16    18    1
   18    16    19    1
   19    19    20    1
   20    19    21    1
   21    19    22    1
   22     1    23    1
   23    23    24    1
   24    23    25    1
   25    23    26    1
@<TRIPOS>SUBSTRUCTURE
       1 MOL1            1 RESIDUE      1      MOL     
@<SCITEGIC>MOL_PROPERTY
VM2 Rank
SciTegic.value.IntegerValue
81

@<SCITEGIC>MOL_PROPERTY
Conf_Id
SciTegic.value.IntegerValue
205

@<SCITEGIC>MOL_PROPERTY
Probability
SciTegic.value.DoubleValue
0.26

@<SCITEGIC>MOL_PROPERTY
Sum Probability
SciTegic.value.DoubleValue
95.24

@<SCITEGIC>MOL_PROPERTY
Delta G
SciTegic.value.DoubleValue
1.982

@<SCITEGIC>MOL_PROPERTY
G
SciTegic.value.DoubleValue
77.448

@<SCITEGIC>MOL_PROPERTY
E
SciTegic.value.DoubleValue
44.560

@<SCITEGIC>MOL_PROPERTY
-TS
SciTegic.value.DoubleValue
32.888

@<SCITEGIC>MOL_PROPERTY
U+W
SciTegic.value.DoubleValue
23.098

@<SCITEGIC>MOL_PROPERTY
U
SciTegic.value.DoubleValue
72.739

@<SCITEGIC>MOL_PROPERTY
W
SciTegic.value.DoubleValue
-49.641

@<SCITEGIC>MOL_PROPERTY
W(PB)
SciTegic.value.DoubleValue
-51.847

@<SCITEGIC>MOL_PROPERTY
W(SA)
SciTegic.value.DoubleValue
2.206

@<SCITEGIC>MOL_PROPERTY
Valence
SciTegic.value.DoubleValue
3.076

@<SCITEGIC>MOL_PROPERTY
Coulomb
SciTegic.value.DoubleValue
69.128

@<SCITEGIC>MOL_PROPERTY
VdW
SciTegic.value.DoubleValue
0.535

@<SCITEGIC>MOL_PROPERTY
VdW6
SciTegic.value.DoubleValue
-8.276

@<SCITEGIC>MOL_PROPERTY
VdW12
SciTegic.value.DoubleValue
8.811

@<SCITEGIC>MOL_PROPERTY
Bond
SciTegic.value.DoubleValue
0.270

@<SCITEGIC>MOL_PROPERTY
Angle
SciTegic.value.DoubleValue
1.277

@<SCITEGIC>MOL_PROPERTY
Pdih
SciTegic.value.DoubleValue
1.529

@<SCITEGIC>MOL_PROPERTY
Idih
SciTegic.value.DoubleValue
0.000

@<SCITEGIC>MOL_PROPERTY
Tether
SciTegic.value.DoubleValue
0.000

@<TRIPOS>MOLECULE
guest-s12_vm2.mol2 : vm2 ligand conformer 82
          26          25           1
SMALL
USER_CHARGES
 
@<TRIPOS>ATOM
       1    N1      19.851034   18.476610   25.990508 N.4        1 MOL1        -0.4857
       2    H1      20.126736   17.822867   26.740466 H          1 MOL1         0.3650
       3    H2      19.011245   18.056676   25.565048 H          1 MOL1         0.3650
       4    C1      20.967472   18.570863   24.961973 C.3        1 MOL1         0.0209
       5    H3      21.241914   17.550200   24.683528 H          1 MOL1         0.0967
       6    H4      21.830084   19.028062   25.453252 H          1 MOL1         0.0967
       7    C2      20.623364   19.364303   23.682244 C.3        1 MOL1        -0.1378
       8    H5      20.389561   20.405124   23.940209 H          1 MOL1         0.0993
       9    H6      21.522682   19.394774   23.054797 H          1 MOL1         0.0993
      10    C3      19.450927   18.738674   22.885782 C.3        1 MOL1        -0.1338
      11    H7      18.564428   18.679101   23.530771 H          1 MOL1         0.0993
      12    H8      19.697249   17.703780   22.613461 H          1 MOL1         0.0993
      13    C4      19.064509   19.542559   21.616987 C.3        1 MOL1        -0.1338
      14    H9      18.200208   19.057064   21.143163 H          1 MOL1         0.0993
      15    H10     18.719135   20.541128   21.918336 H          1 MOL1         0.0993
      16    C5      20.188728   19.700686   20.561210 C.3        1 MOL1        -0.1313
      17    H11     21.014203   20.297964   20.970838 H          1 MOL1         0.0993
      18    H12     19.793279   20.278743   19.714309 H          1 MOL1         0.0993
      19    C6      20.731185   18.353238   20.032933 C.3        1 MOL1        -0.2328
      20    H13     19.919922   17.729748   19.635389 H          1 MOL1         0.1004
      21    H14     21.244123   17.788994   20.821680 H          1 MOL1         0.1004
      22    H15     21.453664   18.520264   19.223629 H          1 MOL1         0.1004
      23    C7      19.530781   19.843067   26.585363 C.3        1 MOL1        -0.0781
      24    H16     19.179133   20.507902   25.793846 H          1 MOL1         0.0978
      25    H17     18.751819   19.729500   27.342567 H          1 MOL1         0.0978
      26    H18     20.432662   20.255343   27.042984 H          1 MOL1         0.0978
@<TRIPOS>BOND
    1     1     2    1
    2     1     3    1
    3     1     4    1
    4     4     5    1
    5     4     6    1
    6     4     7    1
    7     7     8    1
    8     7     9    1
    9     7    10    1
   10    10    11    1
   11    10    12    1
   12    10    13    1
   13    13    14    1
   14    13    15    1
   15    13    16    1
   16    16    17    1
   17    16    18    1
   18    16    19    1
   19    19    20    1
   20    19    21    1
   21    19    22    1
   22     1    23    1
   23    23    24    1
   24    23    25    1
   25    23    26    1
@<TRIPOS>SUBSTRUCTURE
       1 MOL1            1 RESIDUE      1      MOL     
@<SCITEGIC>MOL_PROPERTY
VM2 Rank
SciTegic.value.IntegerValue
82

@<SCITEGIC>MOL_PROPERTY
Conf_Id
SciTegic.value.IntegerValue
1008

@<SCITEGIC>MOL_PROPERTY
Probability
SciTegic.value.DoubleValue
0.25

@<SCITEGIC>MOL_PROPERTY
Sum Probability
SciTegic.value.DoubleValue
95.49

@<SCITEGIC>MOL_PROPERTY
Delta G
SciTegic.value.DoubleValue
1.998

@<SCITEGIC>MOL_PROPERTY
G
SciTegic.value.DoubleValue
77.464

@<SCITEGIC>MOL_PROPERTY
E
SciTegic.value.DoubleValue
44.576

@<SCITEGIC>MOL_PROPERTY
-TS
SciTegic.value.DoubleValue
32.888

@<SCITEGIC>MOL_PROPERTY
U+W
SciTegic.value.DoubleValue
23.114

@<SCITEGIC>MOL_PROPERTY
U
SciTegic.value.DoubleValue
72.739

@<SCITEGIC>MOL_PROPERTY
W
SciTegic.value.DoubleValue
-49.625

@<SCITEGIC>MOL_PROPERTY
W(PB)
SciTegic.value.DoubleValue
-51.868

@<SCITEGIC>MOL_PROPERTY
W(SA)
SciTegic.value.DoubleValue
2.243

@<SCITEGIC>MOL_PROPERTY
Valence
SciTegic.value.DoubleValue
3.076

@<SCITEGIC>MOL_PROPERTY
Coulomb
SciTegic.value.DoubleValue
69.128

@<SCITEGIC>MOL_PROPERTY
VdW
SciTegic.value.DoubleValue
0.535

@<SCITEGIC>MOL_PROPERTY
VdW6
SciTegic.value.DoubleValue
-8.276

@<SCITEGIC>MOL_PROPERTY
VdW12
SciTegic.value.DoubleValue
8.811

@<SCITEGIC>MOL_PROPERTY
Bond
SciTegic.value.DoubleValue
0.270

@<SCITEGIC>MOL_PROPERTY
Angle
SciTegic.value.DoubleValue
1.278

@<SCITEGIC>MOL_PROPERTY
Pdih
SciTegic.value.DoubleValue
1.529

@<SCITEGIC>MOL_PROPERTY
Idih
SciTegic.value.DoubleValue
0.000

@<SCITEGIC>MOL_PROPERTY
Tether
SciTegic.value.DoubleValue
0.000

@<TRIPOS>MOLECULE
guest-s12_vm2.mol2 : vm2 ligand conformer 83
          26          25           1
SMALL
USER_CHARGES
 
@<TRIPOS>ATOM
       1    N1      20.044261   18.229574   25.499305 N.4        1 MOL1        -0.4857
       2    H1      20.530615   17.370894   25.802301 H          1 MOL1         0.3650
       3    H2      19.222101   17.902504   24.970480 H          1 MOL1         0.3650
       4    C1      20.956436   19.039964   24.592209 C.3        1 MOL1         0.0209
       5    H3      21.349745   18.360244   23.832279 H          1 MOL1         0.0967
       6    H4      21.797415   19.391416   25.195253 H          1 MOL1         0.0967
       7    C2      20.282832   20.241490   23.891963 C.3        1 MOL1        -0.1378
       8    H5      19.960760   20.970096   24.647014 H          1 MOL1         0.0993
       9    H6      21.033890   20.760893   23.283488 H          1 MOL1         0.0993
      10    C3      19.069212   19.855317   23.006152 C.3        1 MOL1        -0.1338
      11    H7      18.683409   20.761791   22.519684 H          1 MOL1         0.0993
      12    H8      18.254275   19.494160   23.647878 H          1 MOL1         0.0993
      13    C4      19.365466   18.786475   21.922201 C.3        1 MOL1        -0.1338
      14    H9      19.664719   17.841736   22.395096 H          1 MOL1         0.0993
      15    H10     18.432179   18.572270   21.383241 H          1 MOL1         0.0993
      16    C5      20.444508   19.222577   20.903026 C.3        1 MOL1        -0.1313
      17    H11     21.406177   19.374843   21.410900 H          1 MOL1         0.0993
      18    H12     20.164290   20.186474   20.455666 H          1 MOL1         0.0993
      19    C6      20.629198   18.173959   19.785429 C.3        1 MOL1        -0.2328
      20    H13     19.696334   18.023205   19.226672 H          1 MOL1         0.1004
      21    H14     20.939749   17.205960   20.199810 H          1 MOL1         0.1004
      22    H15     21.399151   18.497956   19.073252 H          1 MOL1         0.1004
      23    C7      19.616087   19.040645   26.716715 C.3        1 MOL1        -0.0781
      24    H16     20.504699   19.359233   27.265919 H          1 MOL1         0.0978
      25    H17     19.050436   19.914565   26.387418 H          1 MOL1         0.0978
      26    H18     18.989264   18.417804   27.358723 H          1 MOL1         0.0978
@<TRIPOS>BOND
    1     1     2    1
    2     1     3    1
    3     1     4    1
    4     4     5    1
    5     4     6    1
    6     4     7    1
    7     7     8    1
    8     7     9    1
    9     7    10    1
   10    10    11    1
   11    10    12    1
   12    10    13    1
   13    13    14    1
   14    13    15    1
   15    13    16    1
   16    16    17    1
   17    16    18    1
   18    16    19    1
   19    19    20    1
   20    19    21    1
   21    19    22    1
   22     1    23    1
   23    23    24    1
   24    23    25    1
   25    23    26    1
@<TRIPOS>SUBSTRUCTURE
       1 MOL1            1 RESIDUE      1      MOL     
@<SCITEGIC>MOL_PROPERTY
VM2 Rank
SciTegic.value.IntegerValue
83

@<SCITEGIC>MOL_PROPERTY
Conf_Id
SciTegic.value.IntegerValue
1104

@<SCITEGIC>MOL_PROPERTY
Probability
SciTegic.value.DoubleValue
0.24

@<SCITEGIC>MOL_PROPERTY
Sum Probability
SciTegic.value.DoubleValue
95.73

@<SCITEGIC>MOL_PROPERTY
Delta G
SciTegic.value.DoubleValue
2.013

@<SCITEGIC>MOL_PROPERTY
G
SciTegic.value.DoubleValue
77.479

@<SCITEGIC>MOL_PROPERTY
E
SciTegic.value.DoubleValue
44.553

@<SCITEGIC>MOL_PROPERTY
-TS
SciTegic.value.DoubleValue
32.926

@<SCITEGIC>MOL_PROPERTY
U+W
SciTegic.value.DoubleValue
23.091

@<SCITEGIC>MOL_PROPERTY
U
SciTegic.value.DoubleValue
72.939

@<SCITEGIC>MOL_PROPERTY
W
SciTegic.value.DoubleValue
-49.849

@<SCITEGIC>MOL_PROPERTY
W(PB)
SciTegic.value.DoubleValue
-52.092

@<SCITEGIC>MOL_PROPERTY
W(SA)
SciTegic.value.DoubleValue
2.244

@<SCITEGIC>MOL_PROPERTY
Valence
SciTegic.value.DoubleValue
2.864

@<SCITEGIC>MOL_PROPERTY
Coulomb
SciTegic.value.DoubleValue
69.814

@<SCITEGIC>MOL_PROPERTY
VdW
SciTegic.value.DoubleValue
0.261

@<SCITEGIC>MOL_PROPERTY
VdW6
SciTegic.value.DoubleValue
-8.512

@<SCITEGIC>MOL_PROPERTY
VdW12
SciTegic.value.DoubleValue
8.773

@<SCITEGIC>MOL_PROPERTY
Bond
SciTegic.value.DoubleValue
0.254

@<SCITEGIC>MOL_PROPERTY
Angle
SciTegic.value.DoubleValue
1.080

@<SCITEGIC>MOL_PROPERTY
Pdih
SciTegic.value.DoubleValue
1.530

@<SCITEGIC>MOL_PROPERTY
Idih
SciTegic.value.DoubleValue
0.000

@<SCITEGIC>MOL_PROPERTY
Tether
SciTegic.value.DoubleValue
0.000

@<TRIPOS>MOLECULE
guest-s12_vm2.mol2 : vm2 ligand conformer 84
          26          25           1
SMALL
USER_CHARGES
 
@<TRIPOS>ATOM
       1    N1      20.072655   18.232481   25.500345 N.4        1 MOL1        -0.4857
       2    H1      20.978807   18.081317   25.032777 H          1 MOL1         0.3650
       3    H2      19.749037   17.291362   25.774653 H          1 MOL1         0.3650
       4    C1      19.081906   18.849149   24.525787 C.3        1 MOL1         0.0209
       5    H3      18.147252   19.019862   25.065884 H          1 MOL1         0.0967
       6    H4      18.887683   18.109603   23.745047 H          1 MOL1         0.0967
       7    C2      19.547302   20.166599   23.865877 C.3        1 MOL1        -0.1378
       8    H5      18.751607   20.528531   23.202562 H          1 MOL1         0.0993
       9    H6      19.662433   20.939736   24.636398 H          1 MOL1         0.0993
      10    C3      20.872833   20.038859   23.070070 C.3        1 MOL1        -0.1338
      11    H7      21.696760   19.844494   23.769883 H          1 MOL1         0.0993
      12    H8      21.101471   21.007871   22.605385 H          1 MOL1         0.0993
      13    C4      20.874397   18.940033   21.975667 C.3        1 MOL1        -0.1338
      14    H9      21.867118   18.921844   21.504967 H          1 MOL1         0.0993
      15    H10     20.738964   17.951051   22.433145 H          1 MOL1         0.0993
      16    C5      19.803797   19.157379   20.880309 C.3        1 MOL1        -0.1313
      17    H11     19.914988   20.161113   20.446836 H          1 MOL1         0.0993
      18    H12     18.797985   19.109413   21.318451 H          1 MOL1         0.0993
      19    C6      19.912630   18.101062   19.760007 C.3        1 MOL1        -0.2328
      20    H13     19.145049   18.268591   18.993357 H          1 MOL1         0.1004
      21    H14     19.774959   17.087436   20.158485 H          1 MOL1         0.1004
      22    H15     20.893548   18.145097   19.269059 H          1 MOL1         0.1004
      23    C7      20.242480   19.104439   26.738937 C.3        1 MOL1        -0.0781
      24    H16     20.935276   18.615932   27.427709 H          1 MOL1         0.0978
      25    H17     20.642343   20.076633   26.443844 H          1 MOL1         0.0978
      26    H18     19.271688   19.233761   27.222255 H          1 MOL1         0.0978
@<TRIPOS>BOND
    1     1     2    1
    2     1     3    1
    3     1     4    1
    4     4     5    1
    5     4     6    1
    6     4     7    1
    7     7     8    1
    8     7     9    1
    9     7    10    1
   10    10    11    1
   11    10    12    1
   12    10    13    1
   13    13    14    1
   14    13    15    1
   15    13    16    1
   16    16    17    1
   17    16    18    1
   18    16    19    1
   19    19    20    1
   20    19    21    1
   21    19    22    1
   22     1    23    1
   23    23    24    1
   24    23    25    1
   25    23    26    1
@<TRIPOS>SUBSTRUCTURE
       1 MOL1            1 RESIDUE      1      MOL     
@<SCITEGIC>MOL_PROPERTY
VM2 Rank
SciTegic.value.IntegerValue
84

@<SCITEGIC>MOL_PROPERTY
Conf_Id
SciTegic.value.IntegerValue
821

@<SCITEGIC>MOL_PROPERTY
Probability
SciTegic.value.DoubleValue
0.24

@<SCITEGIC>MOL_PROPERTY
Sum Probability
SciTegic.value.DoubleValue
95.97

@<SCITEGIC>MOL_PROPERTY
Delta G
SciTegic.value.DoubleValue
2.020

@<SCITEGIC>MOL_PROPERTY
G
SciTegic.value.DoubleValue
77.486

@<SCITEGIC>MOL_PROPERTY
E
SciTegic.value.DoubleValue
44.561

@<SCITEGIC>MOL_PROPERTY
-TS
SciTegic.value.DoubleValue
32.926

@<SCITEGIC>MOL_PROPERTY
U+W
SciTegic.value.DoubleValue
23.099

@<SCITEGIC>MOL_PROPERTY
U
SciTegic.value.DoubleValue
72.939

@<SCITEGIC>MOL_PROPERTY
W
SciTegic.value.DoubleValue
-49.840

@<SCITEGIC>MOL_PROPERTY
W(PB)
SciTegic.value.DoubleValue
-52.063

@<SCITEGIC>MOL_PROPERTY
W(SA)
SciTegic.value.DoubleValue
2.222

@<SCITEGIC>MOL_PROPERTY
Valence
SciTegic.value.DoubleValue
2.864

@<SCITEGIC>MOL_PROPERTY
Coulomb
SciTegic.value.DoubleValue
69.814

@<SCITEGIC>MOL_PROPERTY
VdW
SciTegic.value.DoubleValue
0.262

@<SCITEGIC>MOL_PROPERTY
VdW6
SciTegic.value.DoubleValue
-8.512

@<SCITEGIC>MOL_PROPERTY
VdW12
SciTegic.value.DoubleValue
8.773

@<SCITEGIC>MOL_PROPERTY
Bond
SciTegic.value.DoubleValue
0.254

@<SCITEGIC>MOL_PROPERTY
Angle
SciTegic.value.DoubleValue
1.080

@<SCITEGIC>MOL_PROPERTY
Pdih
SciTegic.value.DoubleValue
1.530

@<SCITEGIC>MOL_PROPERTY
Idih
SciTegic.value.DoubleValue
0.000

@<SCITEGIC>MOL_PROPERTY
Tether
SciTegic.value.DoubleValue
0.000

@<TRIPOS>MOLECULE
guest-s12_vm2.mol2 : vm2 ligand conformer 85
          26          25           1
SMALL
USER_CHARGES
 
@<TRIPOS>ATOM
       1    N1      20.624884   19.643670   25.588040 N.4        1 MOL1        -0.4857
       2    H1      20.735137   20.304836   24.804821 H          1 MOL1         0.3650
       3    H2      21.497033   19.724074   26.134514 H          1 MOL1         0.3650
       4    C1      20.485155   18.226441   25.055379 C.3        1 MOL1         0.0209
       5    H3      20.352025   17.561509   25.912463 H          1 MOL1         0.0967
       6    H4      21.429918   17.964223   24.573207 H          1 MOL1         0.0967
       7    C2      19.329159   18.013511   24.051592 C.3        1 MOL1        -0.1378
       8    H5      19.331339   16.962887   23.732576 H          1 MOL1         0.0993
       9    H6      18.370598   18.170908   24.562712 H          1 MOL1         0.0993
      10    C3      19.397423   18.926643   22.801455 C.3        1 MOL1        -0.1338
      11    H7      19.315847   19.979197   23.103715 H          1 MOL1         0.0993
      12    H8      18.516753   18.718587   22.180151 H          1 MOL1         0.0993
      13    C4      20.684220   18.718256   21.962734 C.3        1 MOL1        -0.1338
      14    H9      21.566776   18.896886   22.590789 H          1 MOL1         0.0993
      15    H10     20.746162   17.671622   21.634211 H          1 MOL1         0.0993
      16    C5      20.774516   19.651686   20.730960 C.3        1 MOL1        -0.1313
      17    H11     21.759815   19.520719   20.261988 H          1 MOL1         0.0993
      18    H12     20.726086   20.700832   21.054523 H          1 MOL1         0.0993
      19    C6      19.681279   19.383100   19.671554 C.3        1 MOL1        -0.2328
      20    H13     18.681093   19.622420   20.053106 H          1 MOL1         0.1004
      21    H14     19.687104   18.331904   19.355422 H          1 MOL1         0.1004
      22    H15     19.849940   20.001802   18.780666 H          1 MOL1         0.1004
      23    C7      19.431363   20.026693   26.455285 C.3        1 MOL1        -0.0781
      24    H16     18.522128   19.996294   25.851505 H          1 MOL1         0.0978
      25    H17     19.349665   19.320920   27.284727 H          1 MOL1         0.0978
      26    H18     19.581062   21.036552   26.843603 H          1 MOL1         0.0978
@<TRIPOS>BOND
    1     1     2    1
    2     1     3    1
    3     1     4    1
    4     4     5    1
    5     4     6    1
    6     4     7    1
    7     7     8    1
    8     7     9    1
    9     7    10    1
   10    10    11    1
   11    10    12    1
   12    10    13    1
   13    13    14    1
   14    13    15    1
   15    13    16    1
   16    16    17    1
   17    16    18    1
   18    16    19    1
   19    19    20    1
   20    19    21    1
   21    19    22    1
   22     1    23    1
   23    23    24    1
   24    23    25    1
   25    23    26    1
@<TRIPOS>SUBSTRUCTURE
       1 MOL1            1 RESIDUE      1      MOL     
@<SCITEGIC>MOL_PROPERTY
VM2 Rank
SciTegic.value.IntegerValue
85

@<SCITEGIC>MOL_PROPERTY
Conf_Id
SciTegic.value.IntegerValue
402

@<SCITEGIC>MOL_PROPERTY
Probability
SciTegic.value.DoubleValue
0.22

@<SCITEGIC>MOL_PROPERTY
Sum Probability
SciTegic.value.DoubleValue
96.20

@<SCITEGIC>MOL_PROPERTY
Delta G
SciTegic.value.DoubleValue
2.068

@<SCITEGIC>MOL_PROPERTY
G
SciTegic.value.DoubleValue
77.534

@<SCITEGIC>MOL_PROPERTY
E
SciTegic.value.DoubleValue
44.758

@<SCITEGIC>MOL_PROPERTY
-TS
SciTegic.value.DoubleValue
32.776

@<SCITEGIC>MOL_PROPERTY
U+W
SciTegic.value.DoubleValue
23.296

@<SCITEGIC>MOL_PROPERTY
U
SciTegic.value.DoubleValue
73.042

@<SCITEGIC>MOL_PROPERTY
W
SciTegic.value.DoubleValue
-49.745

@<SCITEGIC>MOL_PROPERTY
W(PB)
SciTegic.value.DoubleValue
-51.969

@<SCITEGIC>MOL_PROPERTY
W(SA)
SciTegic.value.DoubleValue
2.224

@<SCITEGIC>MOL_PROPERTY
Valence
SciTegic.value.DoubleValue
2.938

@<SCITEGIC>MOL_PROPERTY
Coulomb
SciTegic.value.DoubleValue
69.625

@<SCITEGIC>MOL_PROPERTY
VdW
SciTegic.value.DoubleValue
0.478

@<SCITEGIC>MOL_PROPERTY
VdW6
SciTegic.value.DoubleValue
-8.182

@<SCITEGIC>MOL_PROPERTY
VdW12
SciTegic.value.DoubleValue
8.660

@<SCITEGIC>MOL_PROPERTY
Bond
SciTegic.value.DoubleValue
0.253

@<SCITEGIC>MOL_PROPERTY
Angle
SciTegic.value.DoubleValue
1.038

@<SCITEGIC>MOL_PROPERTY
Pdih
SciTegic.value.DoubleValue
1.647

@<SCITEGIC>MOL_PROPERTY
Idih
SciTegic.value.DoubleValue
0.000

@<SCITEGIC>MOL_PROPERTY
Tether
SciTegic.value.DoubleValue
0.000

@<TRIPOS>MOLECULE
guest-s12_vm2.mol2 : vm2 ligand conformer 86
          26          25           1
SMALL
USER_CHARGES
 
@<TRIPOS>ATOM
       1    N1      19.214017   19.498914   25.538169 N.4        1 MOL1        -0.4857
       2    H1      18.307572   19.396791   26.021565 H          1 MOL1         0.3650
       3    H2      19.027154   20.129698   24.744491 H          1 MOL1         0.3650
       4    C1      19.675226   18.143393   25.026665 C.3        1 MOL1         0.0209
       5    H3      18.839405   17.698525   24.481398 H          1 MOL1         0.0967
       6    H4      19.880120   17.513070   25.895666 H          1 MOL1         0.0967
       7    C2      20.917754   18.176642   24.107822 C.3        1 MOL1        -0.1378
       8    H5      21.786263   18.521576   24.683643 H          1 MOL1         0.0993
       9    H6      21.151115   17.149744   23.797001 H          1 MOL1         0.0993
      10    C3      20.753332   19.065878   22.849433 C.3        1 MOL1        -0.1338
      11    H7      21.699191   19.045299   22.292825 H          1 MOL1         0.0993
      12    H8      20.598286   20.110892   23.149081 H          1 MOL1         0.0993
      13    C4      19.597528   18.606770   21.924197 C.3        1 MOL1        -0.1338
      14    H9      19.772347   17.571704   21.599724 H          1 MOL1         0.0993
      15    H10     18.655319   18.598164   22.487609 H          1 MOL1         0.0993
      16    C5      19.406243   19.511250   20.682407 C.3        1 MOL1        -0.1313
      17    H11     19.218142   20.546081   21.000977 H          1 MOL1         0.0993
      18    H12     18.503262   19.186537   20.146599 H          1 MOL1         0.0993
      19    C6      20.602630   19.477516   19.704055 C.3        1 MOL1        -0.2328
      20    H13     21.504322   19.911893   20.152940 H          1 MOL1         0.1004
      21    H14     20.374796   20.055567   18.799141 H          1 MOL1         0.1004
      22    H15     20.832187   18.449272   19.395824 H          1 MOL1         0.1004
      23    C7      20.241271   20.109639   26.484252 C.3        1 MOL1        -0.0781
      24    H16     20.406026   19.429046   27.322352 H          1 MOL1         0.0978
      25    H17     21.177826   20.268662   25.945962 H          1 MOL1         0.0978
      26    H18     19.863047   21.065293   26.853965 H          1 MOL1         0.0978
@<TRIPOS>BOND
    1     1     2    1
    2     1     3    1
    3     1     4    1
    4     4     5    1
    5     4     6    1
    6     4     7    1
    7     7     8    1
    8     7     9    1
    9     7    10    1
   10    10    11    1
   11    10    12    1
   12    10    13    1
   13    13    14    1
   14    13    15    1
   15    13    16    1
   16    16    17    1
   17    16    18    1
   18    16    19    1
   19    19    20    1
   20    19    21    1
   21    19    22    1
   22     1    23    1
   23    23    24    1
   24    23    25    1
   25    23    26    1
@<TRIPOS>SUBSTRUCTURE
       1 MOL1            1 RESIDUE      1      MOL     
@<SCITEGIC>MOL_PROPERTY
VM2 Rank
SciTegic.value.IntegerValue
86

@<SCITEGIC>MOL_PROPERTY
Conf_Id
SciTegic.value.IntegerValue
1216

@<SCITEGIC>MOL_PROPERTY
Probability
SciTegic.value.DoubleValue
0.22

@<SCITEGIC>MOL_PROPERTY
Sum Probability
SciTegic.value.DoubleValue
96.42

@<SCITEGIC>MOL_PROPERTY
Delta G
SciTegic.value.DoubleValue
2.068

@<SCITEGIC>MOL_PROPERTY
G
SciTegic.value.DoubleValue
77.535

@<SCITEGIC>MOL_PROPERTY
E
SciTegic.value.DoubleValue
44.759

@<SCITEGIC>MOL_PROPERTY
-TS
SciTegic.value.DoubleValue
32.776

@<SCITEGIC>MOL_PROPERTY
U+W
SciTegic.value.DoubleValue
23.297

@<SCITEGIC>MOL_PROPERTY
U
SciTegic.value.DoubleValue
73.041

@<SCITEGIC>MOL_PROPERTY
W
SciTegic.value.DoubleValue
-49.745

@<SCITEGIC>MOL_PROPERTY
W(PB)
SciTegic.value.DoubleValue
-52.024

@<SCITEGIC>MOL_PROPERTY
W(SA)
SciTegic.value.DoubleValue
2.279

@<SCITEGIC>MOL_PROPERTY
Valence
SciTegic.value.DoubleValue
2.938

@<SCITEGIC>MOL_PROPERTY
Coulomb
SciTegic.value.DoubleValue
69.625

@<SCITEGIC>MOL_PROPERTY
VdW
SciTegic.value.DoubleValue
0.478

@<SCITEGIC>MOL_PROPERTY
VdW6
SciTegic.value.DoubleValue
-8.181

@<SCITEGIC>MOL_PROPERTY
VdW12
SciTegic.value.DoubleValue
8.659

@<SCITEGIC>MOL_PROPERTY
Bond
SciTegic.value.DoubleValue
0.253

@<SCITEGIC>MOL_PROPERTY
Angle
SciTegic.value.DoubleValue
1.038

@<SCITEGIC>MOL_PROPERTY
Pdih
SciTegic.value.DoubleValue
1.647

@<SCITEGIC>MOL_PROPERTY
Idih
SciTegic.value.DoubleValue
0.000

@<SCITEGIC>MOL_PROPERTY
Tether
SciTegic.value.DoubleValue
0.000

@<TRIPOS>MOLECULE
guest-s12_vm2.mol2 : vm2 ligand conformer 87
          26          25           1
SMALL
USER_CHARGES
 
@<TRIPOS>ATOM
       1    N1      19.505356   18.911230   26.188501 N.4        1 MOL1        -0.4857
       2    H1      19.537538   18.672269   27.192257 H          1 MOL1         0.3650
       3    H2      18.716398   18.365273   25.810381 H          1 MOL1         0.3650
       4    C1      20.807326   18.485254   25.528996 C.3        1 MOL1         0.0209
       5    H3      21.200722   17.653157   26.118558 H          1 MOL1         0.0967
       6    H4      21.517290   19.312410   25.607071 H          1 MOL1         0.0967
       7    C2      20.687530   18.015798   24.061760 C.3        1 MOL1        -0.1378
       8    H5      21.671984   17.647982   23.743384 H          1 MOL1         0.0993
       9    H6      20.005358   17.157023   24.008724 H          1 MOL1         0.0993
      10    C3      20.218341   19.118193   23.083483 C.3        1 MOL1        -0.1338
      11    H7      20.847926   20.010474   23.205657 H          1 MOL1         0.0993
      12    H8      19.188842   19.412795   23.325137 H          1 MOL1         0.0993
      13    C4      20.273003   18.643988   21.613294 C.3        1 MOL1        -0.1338
      14    H9      21.300997   18.350733   21.358921 H          1 MOL1         0.0993
      15    H10     19.648200   17.748102   21.492735 H          1 MOL1         0.0993
      16    C5      19.794666   19.740868   20.635910 C.3        1 MOL1        -0.1313
      17    H11     20.417963   20.638686   20.751717 H          1 MOL1         0.0993
      18    H12     18.765337   20.035907   20.883727 H          1 MOL1         0.0993
      19    C6      19.851169   19.264359   19.168739 C.3        1 MOL1        -0.2328
      20    H13     20.875472   18.994538   18.880296 H          1 MOL1         0.1004
      21    H14     19.507982   20.056244   18.490389 H          1 MOL1         0.1004
      22    H15     19.209998   18.386859   19.013526 H          1 MOL1         0.1004
      23    C7      19.270608   20.410310   26.036316 C.3        1 MOL1        -0.0781
      24    H16     18.338804   20.678049   26.539427 H          1 MOL1         0.0978
      25    H17     20.102704   20.950134   26.493504 H          1 MOL1         0.0978
      26    H18     19.202846   20.667277   24.978517 H          1 MOL1         0.0978
@<TRIPOS>BOND
    1     1     2    1
    2     1     3    1
    3     1     4    1
    4     4     5    1
    5     4     6    1
    6     4     7    1
    7     7     8    1
    8     7     9    1
    9     7    10    1
   10    10    11    1
   11    10    12    1
   12    10    13    1
   13    13    14    1
   14    13    15    1
   15    13    16    1
   16    16    17    1
   17    16    18    1
   18    16    19    1
   19    19    20    1
   20    19    21    1
   21    19    22    1
   22     1    23    1
   23    23    24    1
   24    23    25    1
   25    23    26    1
@<TRIPOS>SUBSTRUCTURE
       1 MOL1            1 RESIDUE      1      MOL     
@<SCITEGIC>MOL_PROPERTY
VM2 Rank
SciTegic.value.IntegerValue
87

@<SCITEGIC>MOL_PROPERTY
Conf_Id
SciTegic.value.IntegerValue
1015

@<SCITEGIC>MOL_PROPERTY
Probability
SciTegic.value.DoubleValue
0.21

@<SCITEGIC>MOL_PROPERTY
Sum Probability
SciTegic.value.DoubleValue
96.63

@<SCITEGIC>MOL_PROPERTY
Delta G
SciTegic.value.DoubleValue
2.100

@<SCITEGIC>MOL_PROPERTY
G
SciTegic.value.DoubleValue
77.566

@<SCITEGIC>MOL_PROPERTY
E
SciTegic.value.DoubleValue
45.057

@<SCITEGIC>MOL_PROPERTY
-TS
SciTegic.value.DoubleValue
32.510

@<SCITEGIC>MOL_PROPERTY
U+W
SciTegic.value.DoubleValue
23.595

@<SCITEGIC>MOL_PROPERTY
U
SciTegic.value.DoubleValue
72.879

@<SCITEGIC>MOL_PROPERTY
W
SciTegic.value.DoubleValue
-49.283

@<SCITEGIC>MOL_PROPERTY
W(PB)
SciTegic.value.DoubleValue
-51.552

@<SCITEGIC>MOL_PROPERTY
W(SA)
SciTegic.value.DoubleValue
2.268

@<SCITEGIC>MOL_PROPERTY
Valence
SciTegic.value.DoubleValue
3.733

@<SCITEGIC>MOL_PROPERTY
Coulomb
SciTegic.value.DoubleValue
68.869

@<SCITEGIC>MOL_PROPERTY
VdW
SciTegic.value.DoubleValue
0.277

@<SCITEGIC>MOL_PROPERTY
VdW6
SciTegic.value.DoubleValue
-6.946

@<SCITEGIC>MOL_PROPERTY
VdW12
SciTegic.value.DoubleValue
7.223

@<SCITEGIC>MOL_PROPERTY
Bond
SciTegic.value.DoubleValue
0.187

@<SCITEGIC>MOL_PROPERTY
Angle
SciTegic.value.DoubleValue
0.835

@<SCITEGIC>MOL_PROPERTY
Pdih
SciTegic.value.DoubleValue
2.712

@<SCITEGIC>MOL_PROPERTY
Idih
SciTegic.value.DoubleValue
0.000

@<SCITEGIC>MOL_PROPERTY
Tether
SciTegic.value.DoubleValue
0.000

@<TRIPOS>MOLECULE
guest-s12_vm2.mol2 : vm2 ligand conformer 88
          26          25           1
SMALL
USER_CHARGES
 
@<TRIPOS>ATOM
       1    N1      20.413877   19.004216   26.220734 N.4        1 MOL1        -0.4857
       2    H1      21.321491   18.631883   25.902765 H          1 MOL1         0.3650
       3    H2      20.360444   18.756504   27.221458 H          1 MOL1         0.3650
       4    C1      19.274491   18.328379   25.474694 C.3        1 MOL1         0.0209
       5    H3      18.408173   18.994209   25.496902 H          1 MOL1         0.0967
       6    H4      19.017260   17.429695   26.041200 H          1 MOL1         0.0967
       7    C2      19.589282   17.903389   24.022863 C.3        1 MOL1        -0.1378
       8    H5      20.433152   17.200859   24.023900 H          1 MOL1         0.0993
       9    H6      18.724410   17.346222   23.638985 H          1 MOL1         0.0993
      10    C3      19.892956   19.084897   23.071936 C.3        1 MOL1        -0.1338
      11    H7      20.821997   19.580068   23.382972 H          1 MOL1         0.0993
      12    H8      19.088807   19.830363   23.143288 H          1 MOL1         0.0993
      13    C4      20.038532   18.619964   21.604977 C.3        1 MOL1        -0.1338
      14    H9      20.838679   17.870043   21.534912 H          1 MOL1         0.0993
      15    H10     19.111606   18.126445   21.281370 H          1 MOL1         0.0993
      16    C5      20.352083   19.797943   20.655618 C.3        1 MOL1        -0.1313
      17    H11     21.280376   20.293566   20.972806 H          1 MOL1         0.0993
      18    H12     19.553313   20.550059   20.720996 H          1 MOL1         0.0993
      19    C6      20.496206   19.330373   19.191564 C.3        1 MOL1        -0.2328
      20    H13     21.311104   18.602083   19.087974 H          1 MOL1         0.1004
      21    H14     20.718532   20.180195   18.533237 H          1 MOL1         0.1004
      22    H15     19.570575   18.860727   18.834018 H          1 MOL1         0.1004
      23    C7      20.350572   20.520838   26.074615 C.3        1 MOL1        -0.0781
      24    H16     21.171359   20.967939   26.639836 H          1 MOL1         0.0978
      25    H17     20.438887   20.793768   25.022345 H          1 MOL1         0.0978
      26    H18     19.396529   20.877873   26.468497 H          1 MOL1         0.0978
@<TRIPOS>BOND
    1     1     2    1
    2     1     3    1
    3     1     4    1
    4     4     5    1
    5     4     6    1
    6     4     7    1
    7     7     8    1
    8     7     9    1
    9     7    10    1
   10    10    11    1
   11    10    12    1
   12    10    13    1
   13    13    14    1
   14    13    15    1
   15    13    16    1
   16    16    17    1
   17    16    18    1
   18    16    19    1
   19    19    20    1
   20    19    21    1
   21    19    22    1
   22     1    23    1
   23    23    24    1
   24    23    25    1
   25    23    26    1
@<TRIPOS>SUBSTRUCTURE
       1 MOL1            1 RESIDUE      1      MOL     
@<SCITEGIC>MOL_PROPERTY
VM2 Rank
SciTegic.value.IntegerValue
88

@<SCITEGIC>MOL_PROPERTY
Conf_Id
SciTegic.value.IntegerValue
256

@<SCITEGIC>MOL_PROPERTY
Probability
SciTegic.value.DoubleValue
0.21

@<SCITEGIC>MOL_PROPERTY
Sum Probability
SciTegic.value.DoubleValue
96.83

@<SCITEGIC>MOL_PROPERTY
Delta G
SciTegic.value.DoubleValue
2.105

@<SCITEGIC>MOL_PROPERTY
G
SciTegic.value.DoubleValue
77.571

@<SCITEGIC>MOL_PROPERTY
E
SciTegic.value.DoubleValue
45.061

@<SCITEGIC>MOL_PROPERTY
-TS
SciTegic.value.DoubleValue
32.510

@<SCITEGIC>MOL_PROPERTY
U+W
SciTegic.value.DoubleValue
23.599

@<SCITEGIC>MOL_PROPERTY
U
SciTegic.value.DoubleValue
72.879

@<SCITEGIC>MOL_PROPERTY
W
SciTegic.value.DoubleValue
-49.280

@<SCITEGIC>MOL_PROPERTY
W(PB)
SciTegic.value.DoubleValue
-51.580

@<SCITEGIC>MOL_PROPERTY
W(SA)
SciTegic.value.DoubleValue
2.300

@<SCITEGIC>MOL_PROPERTY
Valence
SciTegic.value.DoubleValue
3.733

@<SCITEGIC>MOL_PROPERTY
Coulomb
SciTegic.value.DoubleValue
68.869

@<SCITEGIC>MOL_PROPERTY
VdW
SciTegic.value.DoubleValue
0.276

@<SCITEGIC>MOL_PROPERTY
VdW6
SciTegic.value.DoubleValue
-6.946

@<SCITEGIC>MOL_PROPERTY
VdW12
SciTegic.value.DoubleValue
7.222

@<SCITEGIC>MOL_PROPERTY
Bond
SciTegic.value.DoubleValue
0.187

@<SCITEGIC>MOL_PROPERTY
Angle
SciTegic.value.DoubleValue
0.835

@<SCITEGIC>MOL_PROPERTY
Pdih
SciTegic.value.DoubleValue
2.712

@<SCITEGIC>MOL_PROPERTY
Idih
SciTegic.value.DoubleValue
0.000

@<SCITEGIC>MOL_PROPERTY
Tether
SciTegic.value.DoubleValue
0.000

@<TRIPOS>MOLECULE
guest-s12_vm2.mol2 : vm2 ligand conformer 89
          26          25           1
SMALL
USER_CHARGES
 
@<TRIPOS>ATOM
       1    N1      20.677023   18.445537   25.339610 N.4        1 MOL1        -0.4857
       2    H1      21.264986   18.489990   24.494027 H          1 MOL1         0.3650
       3    H2      20.894891   17.534472   25.773488 H          1 MOL1         0.3650
       4    C1      19.207298   18.487937   24.952272 C.3        1 MOL1         0.0209
       5    H3      18.619978   18.458424   25.873485 H          1 MOL1         0.0967
       6    H4      18.991997   17.576648   24.389057 H          1 MOL1         0.0967
       7    C2      18.786344   19.712980   24.109086 C.3        1 MOL1        -0.1378
       8    H5      17.714439   19.632382   23.885275 H          1 MOL1         0.0993
       9    H6      18.901329   20.625526   24.708155 H          1 MOL1         0.0993
      10    C3      19.575120   19.866810   22.784556 C.3        1 MOL1        -0.1338
      11    H7      20.633855   20.047368   23.009642 H          1 MOL1         0.0993
      12    H8      19.215356   20.765664   22.265206 H          1 MOL1         0.0993
      13    C4      19.427646   18.643599   21.844445 C.3        1 MOL1        -0.1338
      14    H9      19.855731   17.748632   22.315130 H          1 MOL1         0.0993
      15    H10     18.359488   18.433581   21.695309 H          1 MOL1         0.0993
      16    C5      20.085815   18.851756   20.459141 C.3        1 MOL1        -0.1313
      17    H11     19.647137   19.731006   19.966910 H          1 MOL1         0.0993
      18    H12     19.844103   17.990398   19.820771 H          1 MOL1         0.0993
      19    C6      21.622440   19.005929   20.526750 C.3        1 MOL1        -0.2328
      20    H13     22.083489   18.150878   21.037837 H          1 MOL1         0.1004
      21    H14     21.913477   19.921737   21.055863 H          1 MOL1         0.1004
      22    H15     22.047368   19.060742   19.516125 H          1 MOL1         0.1004
      23    C7      21.026313   19.575451   26.301141 C.3        1 MOL1        -0.0781
      24    H16     20.401336   19.493308   27.193003 H          1 MOL1         0.0978
      25    H17     22.079316   19.494968   26.579930 H          1 MOL1         0.0978
      26    H18     20.848387   20.534589   25.810663 H          1 MOL1         0.0978
@<TRIPOS>BOND
    1     1     2    1
    2     1     3    1
    3     1     4    1
    4     4     5    1
    5     4     6    1
    6     4     7    1
    7     7     8    1
    8     7     9    1
    9     7    10    1
   10    10    11    1
   11    10    12    1
   12    10    13    1
   13    13    14    1
   14    13    15    1
   15    13    16    1
   16    16    17    1
   17    16    18    1
   18    16    19    1
   19    19    20    1
   20    19    21    1
   21    19    22    1
   22     1    23    1
   23    23    24    1
   24    23    25    1
   25    23    26    1
@<TRIPOS>SUBSTRUCTURE
       1 MOL1            1 RESIDUE      1      MOL     
@<SCITEGIC>MOL_PROPERTY
VM2 Rank
SciTegic.value.IntegerValue
89

@<SCITEGIC>MOL_PROPERTY
Conf_Id
SciTegic.value.IntegerValue
1345

@<SCITEGIC>MOL_PROPERTY
Probability
SciTegic.value.DoubleValue
0.20

@<SCITEGIC>MOL_PROPERTY
Sum Probability
SciTegic.value.DoubleValue
97.03

@<SCITEGIC>MOL_PROPERTY
Delta G
SciTegic.value.DoubleValue
2.141

@<SCITEGIC>MOL_PROPERTY
G
SciTegic.value.DoubleValue
77.607

@<SCITEGIC>MOL_PROPERTY
E
SciTegic.value.DoubleValue
44.799

@<SCITEGIC>MOL_PROPERTY
-TS
SciTegic.value.DoubleValue
32.808

@<SCITEGIC>MOL_PROPERTY
U+W
SciTegic.value.DoubleValue
23.337

@<SCITEGIC>MOL_PROPERTY
U
SciTegic.value.DoubleValue
73.121

@<SCITEGIC>MOL_PROPERTY
W
SciTegic.value.DoubleValue
-49.784

@<SCITEGIC>MOL_PROPERTY
W(PB)
SciTegic.value.DoubleValue
-52.011

@<SCITEGIC>MOL_PROPERTY
W(SA)
SciTegic.value.DoubleValue
2.227

@<SCITEGIC>MOL_PROPERTY
Valence
SciTegic.value.DoubleValue
2.868

@<SCITEGIC>MOL_PROPERTY
Coulomb
SciTegic.value.DoubleValue
69.886

@<SCITEGIC>MOL_PROPERTY
VdW
SciTegic.value.DoubleValue
0.367

@<SCITEGIC>MOL_PROPERTY
VdW6
SciTegic.value.DoubleValue
-8.311

@<SCITEGIC>MOL_PROPERTY
VdW12
SciTegic.value.DoubleValue
8.678

@<SCITEGIC>MOL_PROPERTY
Bond
SciTegic.value.DoubleValue
0.246

@<SCITEGIC>MOL_PROPERTY
Angle
SciTegic.value.DoubleValue
0.961

@<SCITEGIC>MOL_PROPERTY
Pdih
SciTegic.value.DoubleValue
1.661

@<SCITEGIC>MOL_PROPERTY
Idih
SciTegic.value.DoubleValue
0.000

@<SCITEGIC>MOL_PROPERTY
Tether
SciTegic.value.DoubleValue
0.000

@<TRIPOS>MOLECULE
guest-s12_vm2.mol2 : vm2 ligand conformer 90
          26          25           1
SMALL
USER_CHARGES
 
@<TRIPOS>ATOM
       1    N1      20.725956   18.631212   25.843322 N.4        1 MOL1        -0.4857
       2    H1      21.604110   18.927615   26.298121 H          1 MOL1         0.3650
       3    H2      20.894921   17.657747   25.546606 H          1 MOL1         0.3650
       4    C1      20.458149   19.510831   24.633542 C.3        1 MOL1         0.0209
       5    H3      21.382538   19.549113   24.052220 H          1 MOL1         0.0967
       6    H4      20.240301   20.519973   24.991919 H          1 MOL1         0.0967
       7    C2      19.312692   19.018374   23.723790 C.3        1 MOL1        -0.1378
       8    H5      19.512828   17.988281   23.403065 H          1 MOL1         0.0993
       9    H6      18.377946   18.985540   24.297883 H          1 MOL1         0.0993
      10    C3      19.100464   19.926484   22.486940 C.3        1 MOL1        -0.1338
      11    H7      18.784043   20.921884   22.828094 H          1 MOL1         0.0993
      12    H8      18.261321   19.536547   21.895525 H          1 MOL1         0.0993
      13    C4      20.346320   20.088939   21.574500 C.3        1 MOL1        -0.1338
      14    H9      20.076815   20.731383   20.724893 H          1 MOL1         0.0993
      15    H10     21.128988   20.634408   22.118681 H          1 MOL1         0.0993
      16    C5      20.942701   18.765646   21.030648 C.3        1 MOL1        -0.1313
      17    H11     21.317836   18.149285   21.858579 H          1 MOL1         0.0993
      18    H12     21.819674   19.004662   20.412972 H          1 MOL1         0.0993
      19    C6      19.944427   17.946807   20.181052 C.3        1 MOL1        -0.2328
      20    H13     20.437794   17.065846   19.750549 H          1 MOL1         0.1004
      21    H14     19.546496   18.547005   19.352598 H          1 MOL1         0.1004
      22    H15     19.099909   17.590791   20.784010 H          1 MOL1         0.1004
      23    C7      19.577291   18.701706   26.843206 C.3        1 MOL1        -0.0781
      24    H16     18.665909   18.324874   26.374842 H          1 MOL1         0.0978
      25    H17     19.823061   18.088655   27.713169 H          1 MOL1         0.0978
      26    H18     19.433892   19.739384   27.152213 H          1 MOL1         0.0978
@<TRIPOS>BOND
    1     1     2    1
    2     1     3    1
    3     1     4    1
    4     4     5    1
    5     4     6    1
    6     4     7    1
    7     7     8    1
    8     7     9    1
    9     7    10    1
   10    10    11    1
   11    10    12    1
   12    10    13    1
   13    13    14    1
   14    13    15    1
   15    13    16    1
   16    16    17    1
   17    16    18    1
   18    16    19    1
   19    19    20    1
   20    19    21    1
   21    19    22    1
   22     1    23    1
   23    23    24    1
   24    23    25    1
   25    23    26    1
@<TRIPOS>SUBSTRUCTURE
       1 MOL1            1 RESIDUE      1      MOL     
@<SCITEGIC>MOL_PROPERTY
VM2 Rank
SciTegic.value.IntegerValue
90

@<SCITEGIC>MOL_PROPERTY
Conf_Id
SciTegic.value.IntegerValue
502

@<SCITEGIC>MOL_PROPERTY
Probability
SciTegic.value.DoubleValue
0.20

@<SCITEGIC>MOL_PROPERTY
Sum Probability
SciTegic.value.DoubleValue
97.23

@<SCITEGIC>MOL_PROPERTY
Delta G
SciTegic.value.DoubleValue
2.144

@<SCITEGIC>MOL_PROPERTY
G
SciTegic.value.DoubleValue
77.610

@<SCITEGIC>MOL_PROPERTY
E
SciTegic.value.DoubleValue
44.605

@<SCITEGIC>MOL_PROPERTY
-TS
SciTegic.value.DoubleValue
33.005

@<SCITEGIC>MOL_PROPERTY
U+W
SciTegic.value.DoubleValue
23.143

@<SCITEGIC>MOL_PROPERTY
U
SciTegic.value.DoubleValue
72.964

@<SCITEGIC>MOL_PROPERTY
W
SciTegic.value.DoubleValue
-49.820

@<SCITEGIC>MOL_PROPERTY
W(PB)
SciTegic.value.DoubleValue
-52.038

@<SCITEGIC>MOL_PROPERTY
W(SA)
SciTegic.value.DoubleValue
2.218

@<SCITEGIC>MOL_PROPERTY
Valence
SciTegic.value.DoubleValue
3.204

@<SCITEGIC>MOL_PROPERTY
Coulomb
SciTegic.value.DoubleValue
69.346

@<SCITEGIC>MOL_PROPERTY
VdW
SciTegic.value.DoubleValue
0.413

@<SCITEGIC>MOL_PROPERTY
VdW6
SciTegic.value.DoubleValue
-8.434

@<SCITEGIC>MOL_PROPERTY
VdW12
SciTegic.value.DoubleValue
8.848

@<SCITEGIC>MOL_PROPERTY
Bond
SciTegic.value.DoubleValue
0.271

@<SCITEGIC>MOL_PROPERTY
Angle
SciTegic.value.DoubleValue
1.306

@<SCITEGIC>MOL_PROPERTY
Pdih
SciTegic.value.DoubleValue
1.627

@<SCITEGIC>MOL_PROPERTY
Idih
SciTegic.value.DoubleValue
0.000

@<SCITEGIC>MOL_PROPERTY
Tether
SciTegic.value.DoubleValue
0.000

@<TRIPOS>MOLECULE
guest-s12_vm2.mol2 : vm2 ligand conformer 91
          26          25           1
SMALL
USER_CHARGES
 
@<TRIPOS>ATOM
       1    N1      19.301250   18.486668   25.792824 N.4        1 MOL1        -0.4857
       2    H1      19.352150   17.501215   25.491968 H          1 MOL1         0.3650
       3    H2      18.351844   18.597712   26.182888 H          1 MOL1         0.3650
       4    C1      19.471249   19.410651   24.598515 C.3        1 MOL1         0.0209
       5    H3      19.456487   20.440424   24.964038 H          1 MOL1         0.0967
       6    H4      18.601058   19.266759   23.953566 H          1 MOL1         0.0967
       7    C2      20.753129   19.164526   23.774841 C.3        1 MOL1        -0.1378
       8    H5      21.632857   19.315829   24.413274 H          1 MOL1         0.0993
       9    H6      20.786739   18.117535   23.448202 H          1 MOL1         0.0993
      10    C3      20.865009   20.105541   22.549494 C.3        1 MOL1        -0.1338
      11    H7      21.804664   19.896108   22.021129 H          1 MOL1         0.0993
      12    H8      20.950592   21.141727   22.904913 H          1 MOL1         0.0993
      13    C4      19.678960   20.021247   21.550854 C.3        1 MOL1        -0.1338
      14    H9      18.766605   20.394739   22.034951 H          1 MOL1         0.0993
      15    H10     19.872976   20.710718   20.717674 H          1 MOL1         0.0993
      16    C5      19.399776   18.609116   20.975975 C.3        1 MOL1        -0.1313
      17    H11     18.538209   18.671741   20.296624 H          1 MOL1         0.0993
      18    H12     19.098773   17.924177   21.779936 H          1 MOL1         0.0993
      19    C6      20.599087   18.013208   20.204348 C.3        1 MOL1        -0.2328
      20    H13     20.925628   18.686879   19.401565 H          1 MOL1         0.1004
      21    H14     20.323901   17.054252   19.746626 H          1 MOL1         0.1004
      22    H15     21.453452   17.829583   20.867568 H          1 MOL1         0.1004
      23    C7      20.339540   18.779043   26.870150 C.3        1 MOL1        -0.0781
      24    H16     20.161359   18.123095   27.725168 H          1 MOL1         0.0978
      25    H17     21.338487   18.595876   26.469477 H          1 MOL1         0.0978
      26    H18     20.249980   19.822216   27.180944 H          1 MOL1         0.0978
@<TRIPOS>BOND
    1     1     2    1
    2     1     3    1
    3     1     4    1
    4     4     5    1
    5     4     6    1
    6     4     7    1
    7     7     8    1
    8     7     9    1
    9     7    10    1
   10    10    11    1
   11    10    12    1
   12    10    13    1
   13    13    14    1
   14    13    15    1
   15    13    16    1
   16    16    17    1
   17    16    18    1
   18    16    19    1
   19    19    20    1
   20    19    21    1
   21    19    22    1
   22     1    23    1
   23    23    24    1
   24    23    25    1
   25    23    26    1
@<TRIPOS>SUBSTRUCTURE
       1 MOL1            1 RESIDUE      1      MOL     
@<SCITEGIC>MOL_PROPERTY
VM2 Rank
SciTegic.value.IntegerValue
91

@<SCITEGIC>MOL_PROPERTY
Conf_Id
SciTegic.value.IntegerValue
509

@<SCITEGIC>MOL_PROPERTY
Probability
SciTegic.value.DoubleValue
0.19

@<SCITEGIC>MOL_PROPERTY
Sum Probability
SciTegic.value.DoubleValue
97.42

@<SCITEGIC>MOL_PROPERTY
Delta G
SciTegic.value.DoubleValue
2.162

@<SCITEGIC>MOL_PROPERTY
G
SciTegic.value.DoubleValue
77.628

@<SCITEGIC>MOL_PROPERTY
E
SciTegic.value.DoubleValue
44.623

@<SCITEGIC>MOL_PROPERTY
-TS
SciTegic.value.DoubleValue
33.005

@<SCITEGIC>MOL_PROPERTY
U+W
SciTegic.value.DoubleValue
23.161

@<SCITEGIC>MOL_PROPERTY
U
SciTegic.value.DoubleValue
72.964

@<SCITEGIC>MOL_PROPERTY
W
SciTegic.value.DoubleValue
-49.802

@<SCITEGIC>MOL_PROPERTY
W(PB)
SciTegic.value.DoubleValue
-52.051

@<SCITEGIC>MOL_PROPERTY
W(SA)
SciTegic.value.DoubleValue
2.249

@<SCITEGIC>MOL_PROPERTY
Valence
SciTegic.value.DoubleValue
3.203

@<SCITEGIC>MOL_PROPERTY
Coulomb
SciTegic.value.DoubleValue
69.346

@<SCITEGIC>MOL_PROPERTY
VdW
SciTegic.value.DoubleValue
0.414

@<SCITEGIC>MOL_PROPERTY
VdW6
SciTegic.value.DoubleValue
-8.435

@<SCITEGIC>MOL_PROPERTY
VdW12
SciTegic.value.DoubleValue
8.849

@<SCITEGIC>MOL_PROPERTY
Bond
SciTegic.value.DoubleValue
0.271

@<SCITEGIC>MOL_PROPERTY
Angle
SciTegic.value.DoubleValue
1.305

@<SCITEGIC>MOL_PROPERTY
Pdih
SciTegic.value.DoubleValue
1.626

@<SCITEGIC>MOL_PROPERTY
Idih
SciTegic.value.DoubleValue
0.000

@<SCITEGIC>MOL_PROPERTY
Tether
SciTegic.value.DoubleValue
0.000

@<TRIPOS>MOLECULE
guest-s12_vm2.mol2 : vm2 ligand conformer 92
          26          25           1
SMALL
USER_CHARGES
 
@<TRIPOS>ATOM
       1    N1      19.422334   18.317684   25.294997 N.4        1 MOL1        -0.4857
       2    H1      19.362546   17.378368   25.719105 H          1 MOL1         0.3650
       3    H2      18.898329   18.248736   24.409928 H          1 MOL1         0.3650
       4    C1      20.876885   18.658021   25.011477 C.3        1 MOL1         0.0209
       5    H3      21.310314   17.812806   24.471322 H          1 MOL1         0.0967
       6    H4      21.391976   18.740858   25.971824 H          1 MOL1         0.0967
       7    C2      21.100591   19.948707   24.191123 C.3        1 MOL1        -0.1378
       8    H5      20.762574   20.815123   24.774145 H          1 MOL1         0.0993
       9    H6      22.179765   20.087155   24.043518 H          1 MOL1         0.0993
      10    C3      20.391744   19.950037   22.813536 C.3        1 MOL1        -0.1338
      11    H7      20.598720   20.906566   22.314229 H          1 MOL1         0.0993
      12    H8      19.305225   19.912227   22.962630 H          1 MOL1         0.0993
      13    C4      20.847842   18.788229   21.894852 C.3        1 MOL1        -0.1338
      14    H9      21.944177   18.798556   21.822367 H          1 MOL1         0.0993
      15    H10     20.576757   17.822106   22.340820 H          1 MOL1         0.0993
      16    C5      20.259876   18.869465   20.465419 C.3        1 MOL1        -0.1313
      17    H11     20.714148   18.078981   19.851702 H          1 MOL1         0.0993
      18    H12     20.545901   19.822516   19.998842 H          1 MOL1         0.0993
      19    C6      18.722794   18.710604   20.424189 C.3        1 MOL1        -0.2328
      20    H13     18.408726   17.776605   20.907817 H          1 MOL1         0.1004
      21    H14     18.367340   18.685952   19.385932 H          1 MOL1         0.1004
      22    H15     18.217013   19.545252   20.925103 H          1 MOL1         0.1004
      23    C7      18.785934   19.347254   26.221407 C.3        1 MOL1        -0.0781
      24    H16     18.800980   20.326005   25.737679 H          1 MOL1         0.0978
      25    H17     17.753811   19.054307   26.426153 H          1 MOL1         0.0978
      26    H18     19.350434   19.386421   27.155521 H          1 MOL1         0.0978
@<TRIPOS>BOND
    1     1     2    1
    2     1     3    1
    3     1     4    1
    4     4     5    1
    5     4     6    1
    6     4     7    1
    7     7     8    1
    8     7     9    1
    9     7    10    1
   10    10    11    1
   11    10    12    1
   12    10    13    1
   13    13    14    1
   14    13    15    1
   15    13    16    1
   16    16    17    1
   17    16    18    1
   18    16    19    1
   19    19    20    1
   20    19    21    1
   21    19    22    1
   22     1    23    1
   23    23    24    1
   24    23    25    1
   25    23    26    1
@<TRIPOS>SUBSTRUCTURE
       1 MOL1            1 RESIDUE      1      MOL     
@<SCITEGIC>MOL_PROPERTY
VM2 Rank
SciTegic.value.IntegerValue
92

@<SCITEGIC>MOL_PROPERTY
Conf_Id
SciTegic.value.IntegerValue
556

@<SCITEGIC>MOL_PROPERTY
Probability
SciTegic.value.DoubleValue
0.19

@<SCITEGIC>MOL_PROPERTY
Sum Probability
SciTegic.value.DoubleValue
97.60

@<SCITEGIC>MOL_PROPERTY
Delta G
SciTegic.value.DoubleValue
2.172

@<SCITEGIC>MOL_PROPERTY
G
SciTegic.value.DoubleValue
77.638

@<SCITEGIC>MOL_PROPERTY
E
SciTegic.value.DoubleValue
44.830

@<SCITEGIC>MOL_PROPERTY
-TS
SciTegic.value.DoubleValue
32.808

@<SCITEGIC>MOL_PROPERTY
U+W
SciTegic.value.DoubleValue
23.368

@<SCITEGIC>MOL_PROPERTY
U
SciTegic.value.DoubleValue
73.122

@<SCITEGIC>MOL_PROPERTY
W
SciTegic.value.DoubleValue
-49.754

@<SCITEGIC>MOL_PROPERTY
W(PB)
SciTegic.value.DoubleValue
-51.988

@<SCITEGIC>MOL_PROPERTY
W(SA)
SciTegic.value.DoubleValue
2.234

@<SCITEGIC>MOL_PROPERTY
Valence
SciTegic.value.DoubleValue
2.869

@<SCITEGIC>MOL_PROPERTY
Coulomb
SciTegic.value.DoubleValue
69.886

@<SCITEGIC>MOL_PROPERTY
VdW
SciTegic.value.DoubleValue
0.367

@<SCITEGIC>MOL_PROPERTY
VdW6
SciTegic.value.DoubleValue
-8.311

@<SCITEGIC>MOL_PROPERTY
VdW12
SciTegic.value.DoubleValue
8.679

@<SCITEGIC>MOL_PROPERTY
Bond
SciTegic.value.DoubleValue
0.246

@<SCITEGIC>MOL_PROPERTY
Angle
SciTegic.value.DoubleValue
0.961

@<SCITEGIC>MOL_PROPERTY
Pdih
SciTegic.value.DoubleValue
1.661

@<SCITEGIC>MOL_PROPERTY
Idih
SciTegic.value.DoubleValue
0.000

@<SCITEGIC>MOL_PROPERTY
Tether
SciTegic.value.DoubleValue
0.000

@<TRIPOS>MOLECULE
guest-s12_vm2.mol2 : vm2 ligand conformer 93
          26          25           1
SMALL
USER_CHARGES
 
@<TRIPOS>ATOM
       1    N1      19.435123   18.801181   26.159834 N.4        1 MOL1        -0.4857
       2    H1      19.589333   18.604971   27.161569 H          1 MOL1         0.3650
       3    H2      18.576678   18.281639   25.920608 H          1 MOL1         0.3650
       4    C1      20.616105   18.263923   25.362720 C.3        1 MOL1         0.0209
       5    H3      20.788528   17.247715   25.726558 H          1 MOL1         0.0967
       6    H4      21.500144   18.857491   25.608389 H          1 MOL1         0.0967
       7    C2      20.427230   18.195545   23.830389 C.3        1 MOL1        -0.1378
       8    H5      21.046835   17.370955   23.453899 H          1 MOL1         0.0993
       9    H6      19.387484   17.932292   23.599526 H          1 MOL1         0.0993
      10    C3      20.848287   19.495406   23.098485 C.3        1 MOL1        -0.1338
      11    H7      21.855226   19.781393   23.432584 H          1 MOL1         0.0993
      12    H8      20.186922   20.324952   23.373825 H          1 MOL1         0.0993
      13    C4      20.865038   19.355073   21.556283 C.3        1 MOL1        -0.1338
      14    H9      21.281729   20.276796   21.127070 H          1 MOL1         0.0993
      15    H10     21.548365   18.544881   21.266524 H          1 MOL1         0.0993
      16    C5      19.466702   19.102652   20.943987 C.3        1 MOL1        -0.1313
      17    H11     18.770252   19.886454   21.273210 H          1 MOL1         0.0993
      18    H12     19.062482   18.146692   21.302497 H          1 MOL1         0.0993
      19    C6      19.516506   19.078068   19.401306 C.3        1 MOL1        -0.2328
      20    H13     20.182746   18.283588   19.040578 H          1 MOL1         0.1004
      21    H14     19.877901   20.034723   19.002073 H          1 MOL1         0.1004
      22    H15     18.517775   18.895294   18.984003 H          1 MOL1         0.1004
      23    C7      19.233009   20.298151   25.963996 C.3        1 MOL1        -0.0781
      24    H16     18.917148   20.488263   24.937365 H          1 MOL1         0.0978
      25    H17     18.458084   20.645005   26.651199 H          1 MOL1         0.0978
      26    H18     20.170339   20.818737   26.171756 H          1 MOL1         0.0978
@<TRIPOS>BOND
    1     1     2    1
    2     1     3    1
    3     1     4    1
    4     4     5    1
    5     4     6    1
    6     4     7    1
    7     7     8    1
    8     7     9    1
    9     7    10    1
   10    10    11    1
   11    10    12    1
   12    10    13    1
   13    13    14    1
   14    13    15    1
   15    13    16    1
   16    16    17    1
   17    16    18    1
   18    16    19    1
   19    19    20    1
   20    19    21    1
   21    19    22    1
   22     1    23    1
   23    23    24    1
   24    23    25    1
   25    23    26    1
@<TRIPOS>SUBSTRUCTURE
       1 MOL1            1 RESIDUE      1      MOL     
@<SCITEGIC>MOL_PROPERTY
VM2 Rank
SciTegic.value.IntegerValue
93

@<SCITEGIC>MOL_PROPERTY
Conf_Id
SciTegic.value.IntegerValue
1118

@<SCITEGIC>MOL_PROPERTY
Probability
SciTegic.value.DoubleValue
0.16

@<SCITEGIC>MOL_PROPERTY
Sum Probability
SciTegic.value.DoubleValue
97.76

@<SCITEGIC>MOL_PROPERTY
Delta G
SciTegic.value.DoubleValue
2.272

@<SCITEGIC>MOL_PROPERTY
G
SciTegic.value.DoubleValue
77.738

@<SCITEGIC>MOL_PROPERTY
E
SciTegic.value.DoubleValue
45.764

@<SCITEGIC>MOL_PROPERTY
-TS
SciTegic.value.DoubleValue
31.974

@<SCITEGIC>MOL_PROPERTY
U+W
SciTegic.value.DoubleValue
24.302

@<SCITEGIC>MOL_PROPERTY
U
SciTegic.value.DoubleValue
73.883

@<SCITEGIC>MOL_PROPERTY
W
SciTegic.value.DoubleValue
-49.580

@<SCITEGIC>MOL_PROPERTY
W(PB)
SciTegic.value.DoubleValue
-51.846

@<SCITEGIC>MOL_PROPERTY
W(SA)
SciTegic.value.DoubleValue
2.266

@<SCITEGIC>MOL_PROPERTY
Valence
SciTegic.value.DoubleValue
4.358

@<SCITEGIC>MOL_PROPERTY
Coulomb
SciTegic.value.DoubleValue
69.048

@<SCITEGIC>MOL_PROPERTY
VdW
SciTegic.value.DoubleValue
0.477

@<SCITEGIC>MOL_PROPERTY
VdW6
SciTegic.value.DoubleValue
-7.513

@<SCITEGIC>MOL_PROPERTY
VdW12
SciTegic.value.DoubleValue
7.990

@<SCITEGIC>MOL_PROPERTY
Bond
SciTegic.value.DoubleValue
0.237

@<SCITEGIC>MOL_PROPERTY
Angle
SciTegic.value.DoubleValue
1.266

@<SCITEGIC>MOL_PROPERTY
Pdih
SciTegic.value.DoubleValue
2.854

@<SCITEGIC>MOL_PROPERTY
Idih
SciTegic.value.DoubleValue
0.000

@<SCITEGIC>MOL_PROPERTY
Tether
SciTegic.value.DoubleValue
0.000

@<TRIPOS>MOLECULE
guest-s12_vm2.mol2 : vm2 ligand conformer 94
          26          25           1
SMALL
USER_CHARGES
 
@<TRIPOS>ATOM
       1    N1      19.681278   18.940766   25.672026 N.4        1 MOL1        -0.4857
       2    H1      19.887024   18.047236   26.145115 H          1 MOL1         0.3650
       3    H2      18.775758   18.801348   25.199233 H          1 MOL1         0.3650
       4    C1      20.757025   19.248759   24.649157 C.3        1 MOL1         0.0209
       5    H3      21.700736   19.370135   25.186927 H          1 MOL1         0.0967
       6    H4      20.509434   20.202343   24.176703 H          1 MOL1         0.0967
       7    C2      20.918262   18.160186   23.568525 C.3        1 MOL1        -0.1378
       8    H5      21.760467   18.429726   22.918496 H          1 MOL1         0.0993
       9    H6      21.201381   17.214545   24.049384 H          1 MOL1         0.0993
      10    C3      19.647333   17.935882   22.707704 C.3        1 MOL1        -0.1338
      11    H7      18.855468   17.506160   23.335613 H          1 MOL1         0.0993
      12    H8      19.861545   17.171676   21.948743 H          1 MOL1         0.0993
      13    C4      19.096527   19.211924   22.015375 C.3        1 MOL1        -0.1338
      14    H9      18.211244   18.936821   21.425634 H          1 MOL1         0.0993
      15    H10     18.735751   19.915367   22.777697 H          1 MOL1         0.0993
      16    C5      20.102588   19.946501   21.093040 C.3        1 MOL1        -0.1313
      17    H11     20.952787   20.320246   21.679171 H          1 MOL1         0.0993
      18    H12     19.610288   20.836419   20.676614 H          1 MOL1         0.0993
      19    C6      20.617237   19.071953   19.927214 C.3        1 MOL1        -0.2328
      20    H13     19.783418   18.675418   19.333563 H          1 MOL1         0.1004
      21    H14     21.212985   18.225719   20.291157 H          1 MOL1         0.1004
      22    H15     21.255894   19.661565   19.256909 H          1 MOL1         0.1004
      23    C7      19.587749   20.074030   26.683960 C.3        1 MOL1        -0.0781
      24    H16     20.548606   20.181785   27.191944 H          1 MOL1         0.0978
      25    H17     19.338446   21.001048   26.163013 H          1 MOL1         0.0978
      26    H18     18.809161   19.839716   27.413337 H          1 MOL1         0.0978
@<TRIPOS>BOND
    1     1     2    1
    2     1     3    1
    3     1     4    1
    4     4     5    1
    5     4     6    1
    6     4     7    1
    7     7     8    1
    8     7     9    1
    9     7    10    1
   10    10    11    1
   11    10    12    1
   12    10    13    1
   13    13    14    1
   14    13    15    1
   15    13    16    1
   16    16    17    1
   17    16    18    1
   18    16    19    1
   19    19    20    1
   20    19    21    1
   21    19    22    1
   22     1    23    1
   23    23    24    1
   24    23    25    1
   25    23    26    1
@<TRIPOS>SUBSTRUCTURE
       1 MOL1            1 RESIDUE      1      MOL     
@<SCITEGIC>MOL_PROPERTY
VM2 Rank
SciTegic.value.IntegerValue
94

@<SCITEGIC>MOL_PROPERTY
Conf_Id
SciTegic.value.IntegerValue
1357

@<SCITEGIC>MOL_PROPERTY
Probability
SciTegic.value.DoubleValue
0.14

@<SCITEGIC>MOL_PROPERTY
Sum Probability
SciTegic.value.DoubleValue
97.90

@<SCITEGIC>MOL_PROPERTY
Delta G
SciTegic.value.DoubleValue
2.329

@<SCITEGIC>MOL_PROPERTY
G
SciTegic.value.DoubleValue
77.796

@<SCITEGIC>MOL_PROPERTY
E
SciTegic.value.DoubleValue
44.775

@<SCITEGIC>MOL_PROPERTY
-TS
SciTegic.value.DoubleValue
33.021

@<SCITEGIC>MOL_PROPERTY
U+W
SciTegic.value.DoubleValue
23.313

@<SCITEGIC>MOL_PROPERTY
U
SciTegic.value.DoubleValue
72.853

@<SCITEGIC>MOL_PROPERTY
W
SciTegic.value.DoubleValue
-49.540

@<SCITEGIC>MOL_PROPERTY
W(PB)
SciTegic.value.DoubleValue
-51.773

@<SCITEGIC>MOL_PROPERTY
W(SA)
SciTegic.value.DoubleValue
2.233

@<SCITEGIC>MOL_PROPERTY
Valence
SciTegic.value.DoubleValue
3.035

@<SCITEGIC>MOL_PROPERTY
Coulomb
SciTegic.value.DoubleValue
69.793

@<SCITEGIC>MOL_PROPERTY
VdW
SciTegic.value.DoubleValue
0.025

@<SCITEGIC>MOL_PROPERTY
VdW6
SciTegic.value.DoubleValue
-8.577

@<SCITEGIC>MOL_PROPERTY
VdW12
SciTegic.value.DoubleValue
8.602

@<SCITEGIC>MOL_PROPERTY
Bond
SciTegic.value.DoubleValue
0.254

@<SCITEGIC>MOL_PROPERTY
Angle
SciTegic.value.DoubleValue
1.267

@<SCITEGIC>MOL_PROPERTY
Pdih
SciTegic.value.DoubleValue
1.514

@<SCITEGIC>MOL_PROPERTY
Idih
SciTegic.value.DoubleValue
0.000

@<SCITEGIC>MOL_PROPERTY
Tether
SciTegic.value.DoubleValue
0.000

@<TRIPOS>MOLECULE
guest-s12_vm2.mol2 : vm2 ligand conformer 95
          26          25           1
SMALL
USER_CHARGES
 
@<TRIPOS>ATOM
       1    N1      20.272271   19.001346   25.692969 N.4        1 MOL1        -0.4857
       2    H1      21.218097   19.051677   25.285763 H          1 MOL1         0.3650
       3    H2      20.219210   18.081289   26.156885 H          1 MOL1         0.3650
       4    C1      19.230758   19.092326   24.595097 C.3        1 MOL1         0.0209
       5    H3      19.312474   20.079657   24.134297 H          1 MOL1         0.0967
       6    H4      18.246735   19.016125   25.064578 H          1 MOL1         0.0967
       7    C2      19.369497   18.001427   23.513688 C.3        1 MOL1        -0.1378
       8    H5      19.250927   17.014617   23.980345 H          1 MOL1         0.0993
       9    H6      18.537755   18.099356   22.804383 H          1 MOL1         0.0993
      10    C3      20.716578   18.045477   22.745564 C.3        1 MOL1        -0.1338
      11    H7      20.715308   17.259186   21.978971 H          1 MOL1         0.0993
      12    H8      21.533157   17.780620   23.430422 H          1 MOL1         0.0993
      13    C4      21.044489   19.411591   22.084354 C.3        1 MOL1        -0.1338
      14    H9      21.200978   20.168055   22.864994 H          1 MOL1         0.0993
      15    H10     22.006217   19.325814   21.560022 H          1 MOL1         0.0993
      16    C5      19.977542   19.933680   21.088609 C.3        1 MOL1        -0.1313
      17    H11     20.307218   20.907868   20.701314 H          1 MOL1         0.0993
      18    H12     19.030340   20.123160   21.611081 H          1 MOL1         0.0993
      19    C6      19.733706   18.981396   19.895903 C.3        1 MOL1        -0.2328
      20    H13     20.670061   18.766323   19.364961 H          1 MOL1         0.1004
      21    H14     19.037369   19.434170   19.178308 H          1 MOL1         0.1004
      22    H15     19.297800   18.029406   20.223290 H          1 MOL1         0.1004
      23    C7      20.063159   20.122757   26.700817 C.3        1 MOL1        -0.0781
      24    H16     20.820017   20.045787   27.484612 H          1 MOL1         0.0978
      25    H17     20.155375   21.084779   26.191985 H          1 MOL1         0.0978
      26    H18     19.067215   20.029975   27.139446 H          1 MOL1         0.0978
@<TRIPOS>BOND
    1     1     2    1
    2     1     3    1
    3     1     4    1
    4     4     5    1
    5     4     6    1
    6     4     7    1
    7     7     8    1
    8     7     9    1
    9     7    10    1
   10    10    11    1
   11    10    12    1
   12    10    13    1
   13    13    14    1
   14    13    15    1
   15    13    16    1
   16    16    17    1
   17    16    18    1
   18    16    19    1
   19    19    20    1
   20    19    21    1
   21    19    22    1
   22     1    23    1
   23    23    24    1
   24    23    25    1
   25    23    26    1
@<TRIPOS>SUBSTRUCTURE
       1 MOL1            1 RESIDUE      1      MOL     
@<SCITEGIC>MOL_PROPERTY
VM2 Rank
SciTegic.value.IntegerValue
95

@<SCITEGIC>MOL_PROPERTY
Conf_Id
SciTegic.value.IntegerValue
536

@<SCITEGIC>MOL_PROPERTY
Probability
SciTegic.value.DoubleValue
0.12

@<SCITEGIC>MOL_PROPERTY
Sum Probability
SciTegic.value.DoubleValue
98.03

@<SCITEGIC>MOL_PROPERTY
Delta G
SciTegic.value.DoubleValue
2.420

@<SCITEGIC>MOL_PROPERTY
G
SciTegic.value.DoubleValue
77.886

@<SCITEGIC>MOL_PROPERTY
E
SciTegic.value.DoubleValue
44.865

@<SCITEGIC>MOL_PROPERTY
-TS
SciTegic.value.DoubleValue
33.021

@<SCITEGIC>MOL_PROPERTY
U+W
SciTegic.value.DoubleValue
23.404

@<SCITEGIC>MOL_PROPERTY
U
SciTegic.value.DoubleValue
72.853

@<SCITEGIC>MOL_PROPERTY
W
SciTegic.value.DoubleValue
-49.449

@<SCITEGIC>MOL_PROPERTY
W(PB)
SciTegic.value.DoubleValue
-51.678

@<SCITEGIC>MOL_PROPERTY
W(SA)
SciTegic.value.DoubleValue
2.229

@<SCITEGIC>MOL_PROPERTY
Valence
SciTegic.value.DoubleValue
3.035

@<SCITEGIC>MOL_PROPERTY
Coulomb
SciTegic.value.DoubleValue
69.793

@<SCITEGIC>MOL_PROPERTY
VdW
SciTegic.value.DoubleValue
0.025

@<SCITEGIC>MOL_PROPERTY
VdW6
SciTegic.value.DoubleValue
-8.577

@<SCITEGIC>MOL_PROPERTY
VdW12
SciTegic.value.DoubleValue
8.602

@<SCITEGIC>MOL_PROPERTY
Bond
SciTegic.value.DoubleValue
0.254

@<SCITEGIC>MOL_PROPERTY
Angle
SciTegic.value.DoubleValue
1.267

@<SCITEGIC>MOL_PROPERTY
Pdih
SciTegic.value.DoubleValue
1.514

@<SCITEGIC>MOL_PROPERTY
Idih
SciTegic.value.DoubleValue
0.000

@<SCITEGIC>MOL_PROPERTY
Tether
SciTegic.value.DoubleValue
0.000

@<TRIPOS>MOLECULE
guest-s12_vm2.mol2 : vm2 ligand conformer 96
          26          25           1
SMALL
USER_CHARGES
 
@<TRIPOS>ATOM
       1    N1      20.694650   19.218771   25.640339 N.4        1 MOL1        -0.4857
       2    H1      21.450421   19.753150   26.097398 H          1 MOL1         0.3650
       3    H2      21.158034   18.398127   25.222781 H          1 MOL1         0.3650
       4    C1      20.057583   20.065860   24.550314 C.3        1 MOL1         0.0209
       5    H3      20.865879   20.468421   23.934922 H          1 MOL1         0.0967
       6    H4      19.554156   20.906359   25.034595 H          1 MOL1         0.0967
       7    C2      19.057885   19.317476   23.640305 C.3        1 MOL1        -0.1378
       8    H5      18.201747   18.979692   24.238228 H          1 MOL1         0.0993
       9    H6      18.647051   20.026730   22.910679 H          1 MOL1         0.0993
      10    C3      19.672346   18.102820   22.896721 C.3        1 MOL1        -0.1338
      11    H7      18.901720   17.647372   22.260730 H          1 MOL1         0.0993
      12    H8      19.938508   17.328674   23.628837 H          1 MOL1         0.0993
      13    C4      20.924162   18.429991   22.038325 C.3        1 MOL1        -0.1338
      14    H9      21.747934   18.739881   22.694971 H          1 MOL1         0.0993
      15    H10     21.266626   17.506553   21.551324 H          1 MOL1         0.0993
      16    C5      20.712967   19.517513   20.954270 C.3        1 MOL1        -0.1313
      17    H11     21.663854   19.674592   20.426197 H          1 MOL1         0.0993
      18    H12     20.467712   20.479577   21.423667 H          1 MOL1         0.0993
      19    C6      19.624992   19.149607   19.919953 C.3        1 MOL1        -0.2328
      20    H13     19.841590   18.183367   19.446270 H          1 MOL1         0.1004
      21    H14     19.575046   19.907964   19.127976 H          1 MOL1         0.1004
      22    H15     18.632432   19.090370   20.383419 H          1 MOL1         0.1004
      23    C7      19.663414   18.787963   26.676772 C.3        1 MOL1        -0.0781
      24    H16     18.901557   18.172799   26.193789 H          1 MOL1         0.0978
      25    H17     20.161786   18.209594   27.457874 H          1 MOL1         0.0978
      26    H18     19.201305   19.675974   27.113396 H          1 MOL1         0.0978
@<TRIPOS>BOND
    1     1     2    1
    2     1     3    1
    3     1     4    1
    4     4     5    1
    5     4     6    1
    6     4     7    1
    7     7     8    1
    8     7     9    1
    9     7    10    1
   10    10    11    1
   11    10    12    1
   12    10    13    1
   13    13    14    1
   14    13    15    1
   15    13    16    1
   16    16    17    1
   17    16    18    1
   18    16    19    1
   19    19    20    1
   20    19    21    1
   21    19    22    1
   22     1    23    1
   23    23    24    1
   24    23    25    1
   25    23    26    1
@<TRIPOS>SUBSTRUCTURE
       1 MOL1            1 RESIDUE      1      MOL     
@<SCITEGIC>MOL_PROPERTY
VM2 Rank
SciTegic.value.IntegerValue
96

@<SCITEGIC>MOL_PROPERTY
Conf_Id
SciTegic.value.IntegerValue
88

@<SCITEGIC>MOL_PROPERTY
Probability
SciTegic.value.DoubleValue
0.11

@<SCITEGIC>MOL_PROPERTY
Sum Probability
SciTegic.value.DoubleValue
98.14

@<SCITEGIC>MOL_PROPERTY
Delta G
SciTegic.value.DoubleValue
2.473

@<SCITEGIC>MOL_PROPERTY
G
SciTegic.value.DoubleValue
77.939

@<SCITEGIC>MOL_PROPERTY
E
SciTegic.value.DoubleValue
44.698

@<SCITEGIC>MOL_PROPERTY
-TS
SciTegic.value.DoubleValue
33.241

@<SCITEGIC>MOL_PROPERTY
U+W
SciTegic.value.DoubleValue
23.236

@<SCITEGIC>MOL_PROPERTY
U
SciTegic.value.DoubleValue
73.340

@<SCITEGIC>MOL_PROPERTY
W
SciTegic.value.DoubleValue
-50.104

@<SCITEGIC>MOL_PROPERTY
W(PB)
SciTegic.value.DoubleValue
-52.276

@<SCITEGIC>MOL_PROPERTY
W(SA)
SciTegic.value.DoubleValue
2.172

@<SCITEGIC>MOL_PROPERTY
Valence
SciTegic.value.DoubleValue
3.289

@<SCITEGIC>MOL_PROPERTY
Coulomb
SciTegic.value.DoubleValue
69.804

@<SCITEGIC>MOL_PROPERTY
VdW
SciTegic.value.DoubleValue
0.247

@<SCITEGIC>MOL_PROPERTY
VdW6
SciTegic.value.DoubleValue
-9.372

@<SCITEGIC>MOL_PROPERTY
VdW12
SciTegic.value.DoubleValue
9.619

@<SCITEGIC>MOL_PROPERTY
Bond
SciTegic.value.DoubleValue
0.294

@<SCITEGIC>MOL_PROPERTY
Angle
SciTegic.value.DoubleValue
1.399

@<SCITEGIC>MOL_PROPERTY
Pdih
SciTegic.value.DoubleValue
1.596

@<SCITEGIC>MOL_PROPERTY
Idih
SciTegic.value.DoubleValue
0.000

@<SCITEGIC>MOL_PROPERTY
Tether
SciTegic.value.DoubleValue
0.000

@<TRIPOS>MOLECULE
guest-s12_vm2.mol2 : vm2 ligand conformer 97
          26          25           1
SMALL
USER_CHARGES
 
@<TRIPOS>ATOM
       1    N1      19.936671   19.105369   26.323621 N.4        1 MOL1        -0.4857
       2    H1      20.879788   18.811001   26.620387 H          1 MOL1         0.3650
       3    H2      19.357105   19.023666   27.174027 H          1 MOL1         0.3650
       4    C1      19.398789   18.154719   25.262635 C.3        1 MOL1         0.0209
       5    H3      18.410355   18.502801   24.952683 H          1 MOL1         0.0967
       6    H4      19.269366   17.189505   25.759031 H          1 MOL1         0.0967
       7    C2      20.300695   17.939444   24.026409 C.3        1 MOL1        -0.1378
       8    H5      21.357586   17.989585   24.319775 H          1 MOL1         0.0993
       9    H6      20.130481   16.918330   23.660136 H          1 MOL1         0.0993
      10    C3      20.006988   18.926366   22.870653 C.3        1 MOL1        -0.1338
      11    H7      20.194639   19.957502   23.191335 H          1 MOL1         0.0993
      12    H8      18.942014   18.864333   22.611067 H          1 MOL1         0.0993
      13    C4      20.870702   18.619585   21.623356 C.3        1 MOL1        -0.1338
      14    H9      21.930219   18.609826   21.914474 H          1 MOL1         0.0993
      15    H10     20.643006   17.610479   21.252988 H          1 MOL1         0.0993
      16    C5      20.685933   19.643845   20.477362 C.3        1 MOL1        -0.1313
      17    H11     21.405255   19.413162   19.679092 H          1 MOL1         0.0993
      18    H12     20.937854   20.651904   20.835360 H          1 MOL1         0.0993
      19    C6      19.260997   19.646116   19.878207 C.3        1 MOL1        -0.2328
      20    H13     18.517058   19.989506   20.607621 H          1 MOL1         0.1004
      21    H14     18.973336   18.642452   19.539233 H          1 MOL1         0.1004
      22    H15     19.209213   20.319773   19.013090 H          1 MOL1         0.1004
      23    C7      19.947226   20.554557   25.854756 C.3        1 MOL1        -0.0781
      24    H16     18.949155   20.827547   25.505327 H          1 MOL1         0.0978
      25    H17     20.234310   21.196727   26.690382 H          1 MOL1         0.0978
      26    H18     20.671590   20.666152   25.046442 H          1 MOL1         0.0978
@<TRIPOS>BOND
    1     1     2    1
    2     1     3    1
    3     1     4    1
    4     4     5    1
    5     4     6    1
    6     4     7    1
    7     7     8    1
    8     7     9    1
    9     7    10    1
   10    10    11    1
   11    10    12    1
   12    10    13    1
   13    13    14    1
   14    13    15    1
   15    13    16    1
   16    16    17    1
   17    16    18    1
   18    16    19    1
   19    19    20    1
   20    19    21    1
   21    19    22    1
   22     1    23    1
   23    23    24    1
   24    23    25    1
   25    23    26    1
@<TRIPOS>SUBSTRUCTURE
       1 MOL1            1 RESIDUE      1      MOL     
@<SCITEGIC>MOL_PROPERTY
VM2 Rank
SciTegic.value.IntegerValue
97

@<SCITEGIC>MOL_PROPERTY
Conf_Id
SciTegic.value.IntegerValue
269

@<SCITEGIC>MOL_PROPERTY
Probability
SciTegic.value.DoubleValue
0.11

@<SCITEGIC>MOL_PROPERTY
Sum Probability
SciTegic.value.DoubleValue
98.24

@<SCITEGIC>MOL_PROPERTY
Delta G
SciTegic.value.DoubleValue
2.511

@<SCITEGIC>MOL_PROPERTY
G
SciTegic.value.DoubleValue
77.977

@<SCITEGIC>MOL_PROPERTY
E
SciTegic.value.DoubleValue
45.676

@<SCITEGIC>MOL_PROPERTY
-TS
SciTegic.value.DoubleValue
32.301

@<SCITEGIC>MOL_PROPERTY
U+W
SciTegic.value.DoubleValue
24.214

@<SCITEGIC>MOL_PROPERTY
U
SciTegic.value.DoubleValue
73.665

@<SCITEGIC>MOL_PROPERTY
W
SciTegic.value.DoubleValue
-49.452

@<SCITEGIC>MOL_PROPERTY
W(PB)
SciTegic.value.DoubleValue
-51.661

@<SCITEGIC>MOL_PROPERTY
W(SA)
SciTegic.value.DoubleValue
2.210

@<SCITEGIC>MOL_PROPERTY
Valence
SciTegic.value.DoubleValue
4.363

@<SCITEGIC>MOL_PROPERTY
Coulomb
SciTegic.value.DoubleValue
68.783

@<SCITEGIC>MOL_PROPERTY
VdW
SciTegic.value.DoubleValue
0.520

@<SCITEGIC>MOL_PROPERTY
VdW6
SciTegic.value.DoubleValue
-7.471

@<SCITEGIC>MOL_PROPERTY
VdW12
SciTegic.value.DoubleValue
7.991

@<SCITEGIC>MOL_PROPERTY
Bond
SciTegic.value.DoubleValue
0.232

@<SCITEGIC>MOL_PROPERTY
Angle
SciTegic.value.DoubleValue
1.227

@<SCITEGIC>MOL_PROPERTY
Pdih
SciTegic.value.DoubleValue
2.904

@<SCITEGIC>MOL_PROPERTY
Idih
SciTegic.value.DoubleValue
0.000

@<SCITEGIC>MOL_PROPERTY
Tether
SciTegic.value.DoubleValue
0.000

@<TRIPOS>MOLECULE
guest-s12_vm2.mol2 : vm2 ligand conformer 98
          26          25           1
SMALL
USER_CHARGES
 
@<TRIPOS>ATOM
       1    N1      19.228465   19.067370   25.588488 N.4        1 MOL1        -0.4857
       2    H1      18.972671   18.172502   25.145416 H          1 MOL1         0.3650
       3    H2      18.349457   19.432954   25.987672 H          1 MOL1         0.3650
       4    C1      19.753985   20.034532   24.539682 C.3        1 MOL1         0.0209
       5    H3      20.040239   20.956497   25.051978 H          1 MOL1         0.0967
       6    H4      18.925633   20.268227   23.866387 H          1 MOL1         0.0967
       7    C2      20.946478   19.512459   23.707218 C.3        1 MOL1        -0.1378
       8    H5      21.253996   20.295897   23.003060 H          1 MOL1         0.0993
       9    H6      21.809551   19.352076   24.365978 H          1 MOL1         0.0993
      10    C3      20.646276   18.203443   22.931186 C.3        1 MOL1        -0.1338
      11    H7      20.493073   17.385977   23.648413 H          1 MOL1         0.0993
      12    H8      21.536171   17.919404   22.353958 H          1 MOL1         0.0993
      13    C4      19.417225   18.274625   21.984986 C.3        1 MOL1        -0.1338
      14    H9      19.305151   17.304259   21.481975 H          1 MOL1         0.0993
      15    H10     18.503705   18.405352   22.580137 H          1 MOL1         0.0993
      16    C5      19.477560   19.390066   20.910448 C.3        1 MOL1        -0.1313
      17    H11     19.488184   20.378554   21.388807 H          1 MOL1         0.0993
      18    H12     18.553888   19.353800   20.316110 H          1 MOL1         0.0993
      19    C6      20.687227   19.258989   19.957358 C.3        1 MOL1        -0.2328
      20    H13     20.705772   18.272251   19.476822 H          1 MOL1         0.1004
      21    H14     21.636168   19.400069   20.489424 H          1 MOL1         0.1004
      22    H15     20.636735   20.017169   19.165246 H          1 MOL1         0.1004
      23    C7      20.250784   18.848516   26.697634 C.3        1 MOL1        -0.0781
      24    H16     21.154033   18.405274   26.273600 H          1 MOL1         0.0978
      25    H17     20.490260   19.808935   27.159152 H          1 MOL1         0.0978
      26    H18     19.827488   18.174960   27.446066 H          1 MOL1         0.0978
@<TRIPOS>BOND
    1     1     2    1
    2     1     3    1
    3     1     4    1
    4     4     5    1
    5     4     6    1
    6     4     7    1
    7     7     8    1
    8     7     9    1
    9     7    10    1
   10    10    11    1
   11    10    12    1
   12    10    13    1
   13    13    14    1
   14    13    15    1
   15    13    16    1
   16    16    17    1
   17    16    18    1
   18    16    19    1
   19    19    20    1
   20    19    21    1
   21    19    22    1
   22     1    23    1
   23    23    24    1
   24    23    25    1
   25    23    26    1
@<TRIPOS>SUBSTRUCTURE
       1 MOL1            1 RESIDUE      1      MOL     
@<SCITEGIC>MOL_PROPERTY
VM2 Rank
SciTegic.value.IntegerValue
98

@<SCITEGIC>MOL_PROPERTY
Conf_Id
SciTegic.value.IntegerValue
683

@<SCITEGIC>MOL_PROPERTY
Probability
SciTegic.value.DoubleValue
0.10

@<SCITEGIC>MOL_PROPERTY
Sum Probability
SciTegic.value.DoubleValue
98.34

@<SCITEGIC>MOL_PROPERTY
Delta G
SciTegic.value.DoubleValue
2.568

@<SCITEGIC>MOL_PROPERTY
G
SciTegic.value.DoubleValue
78.034

@<SCITEGIC>MOL_PROPERTY
E
SciTegic.value.DoubleValue
44.793

@<SCITEGIC>MOL_PROPERTY
-TS
SciTegic.value.DoubleValue
33.241

@<SCITEGIC>MOL_PROPERTY
U+W
SciTegic.value.DoubleValue
23.331

@<SCITEGIC>MOL_PROPERTY
U
SciTegic.value.DoubleValue
73.340

@<SCITEGIC>MOL_PROPERTY
W
SciTegic.value.DoubleValue
-50.009

@<SCITEGIC>MOL_PROPERTY
W(PB)
SciTegic.value.DoubleValue
-52.177

@<SCITEGIC>MOL_PROPERTY
W(SA)
SciTegic.value.DoubleValue
2.168

@<SCITEGIC>MOL_PROPERTY
Valence
SciTegic.value.DoubleValue
3.289

@<SCITEGIC>MOL_PROPERTY
Coulomb
SciTegic.value.DoubleValue
69.804

@<SCITEGIC>MOL_PROPERTY
VdW
SciTegic.value.DoubleValue
0.247

@<SCITEGIC>MOL_PROPERTY
VdW6
SciTegic.value.DoubleValue
-9.371

@<SCITEGIC>MOL_PROPERTY
VdW12
SciTegic.value.DoubleValue
9.618

@<SCITEGIC>MOL_PROPERTY
Bond
SciTegic.value.DoubleValue
0.294

@<SCITEGIC>MOL_PROPERTY
Angle
SciTegic.value.DoubleValue
1.399

@<SCITEGIC>MOL_PROPERTY
Pdih
SciTegic.value.DoubleValue
1.596

@<SCITEGIC>MOL_PROPERTY
Idih
SciTegic.value.DoubleValue
0.000

@<SCITEGIC>MOL_PROPERTY
Tether
SciTegic.value.DoubleValue
0.000

@<TRIPOS>MOLECULE
guest-s12_vm2.mol2 : vm2 ligand conformer 99
          26          25           1
SMALL
USER_CHARGES
 
@<TRIPOS>ATOM
       1    N1      20.627273   18.946657   26.063110 N.4        1 MOL1        -0.4857
       2    H1      21.535262   18.970953   25.574847 H          1 MOL1         0.3650
       3    H2      20.826312   18.501647   26.973052 H          1 MOL1         0.3650
       4    C1      19.635023   18.090065   25.292579 C.3        1 MOL1         0.0209
       5    H3      18.625045   18.394989   25.577674 H          1 MOL1         0.0967
       6    H4      19.779461   17.061028   25.631611 H          1 MOL1         0.0967
       7    C2      19.790351   18.111688   23.755449 C.3        1 MOL1        -0.1378
       8    H5      20.800135   17.771005   23.494079 H          1 MOL1         0.0993
       9    H6      19.094614   17.373666   23.334846 H          1 MOL1         0.0993
      10    C3      19.509914   19.493779   23.115355 C.3        1 MOL1        -0.1338
      11    H7      20.295344   20.204689   23.403291 H          1 MOL1         0.0993
      12    H8      18.565650   19.889213   23.514562 H          1 MOL1         0.0993
      13    C4      19.411401   19.448923   21.570520 C.3        1 MOL1        -0.1338
      14    H9      18.608008   18.761305   21.272111 H          1 MOL1         0.0993
      15    H10     19.113788   20.443737   21.211108 H          1 MOL1         0.0993
      16    C5      20.733067   19.038244   20.878811 C.3        1 MOL1        -0.1313
      17    H11     21.010839   18.016050   21.168510 H          1 MOL1         0.0993
      18    H12     21.547156   19.696523   21.213025 H          1 MOL1         0.0993
      19    C6      20.617020   19.109022   19.341130 C.3        1 MOL1        -0.2328
      20    H13     19.830089   18.437657   18.973426 H          1 MOL1         0.1004
      21    H14     21.561524   18.812235   18.866955 H          1 MOL1         0.1004
      22    H15     20.379628   20.128109   19.009029 H          1 MOL1         0.1004
      23    C7      20.083950   20.351620   26.300046 C.3        1 MOL1        -0.0781
      24    H16     20.813836   20.923155   26.877691 H          1 MOL1         0.0978
      25    H17     19.907279   20.844611   25.343406 H          1 MOL1         0.0978
      26    H18     19.147314   20.282971   26.857543 H          1 MOL1         0.0978
@<TRIPOS>BOND
    1     1     2    1
    2     1     3    1
    3     1     4    1
    4     4     5    1
    5     4     6    1
    6     4     7    1
    7     7     8    1
    8     7     9    1
    9     7    10    1
   10    10    11    1
   11    10    12    1
   12    10    13    1
   13    13    14    1
   14    13    15    1
   15    13    16    1
   16    16    17    1
   17    16    18    1
   18    16    19    1
   19    19    20    1
   20    19    21    1
   21    19    22    1
   22     1    23    1
   23    23    24    1
   24    23    25    1
   25    23    26    1
@<TRIPOS>SUBSTRUCTURE
       1 MOL1            1 RESIDUE      1      MOL     
@<SCITEGIC>MOL_PROPERTY
VM2 Rank
SciTegic.value.IntegerValue
99

@<SCITEGIC>MOL_PROPERTY
Conf_Id
SciTegic.value.IntegerValue
1368

@<SCITEGIC>MOL_PROPERTY
Probability
SciTegic.value.DoubleValue
0.07

@<SCITEGIC>MOL_PROPERTY
Sum Probability
SciTegic.value.DoubleValue
98.41

@<SCITEGIC>MOL_PROPERTY
Delta G
SciTegic.value.DoubleValue
2.717

@<SCITEGIC>MOL_PROPERTY
G
SciTegic.value.DoubleValue
78.183

@<SCITEGIC>MOL_PROPERTY
E
SciTegic.value.DoubleValue
45.550

@<SCITEGIC>MOL_PROPERTY
-TS
SciTegic.value.DoubleValue
32.633

@<SCITEGIC>MOL_PROPERTY
U+W
SciTegic.value.DoubleValue
24.089

@<SCITEGIC>MOL_PROPERTY
U
SciTegic.value.DoubleValue
73.664

@<SCITEGIC>MOL_PROPERTY
W
SciTegic.value.DoubleValue
-49.575

@<SCITEGIC>MOL_PROPERTY
W(PB)
SciTegic.value.DoubleValue
-51.836

@<SCITEGIC>MOL_PROPERTY
W(SA)
SciTegic.value.DoubleValue
2.261

@<SCITEGIC>MOL_PROPERTY
Valence
SciTegic.value.DoubleValue
4.219

@<SCITEGIC>MOL_PROPERTY
Coulomb
SciTegic.value.DoubleValue
69.065

@<SCITEGIC>MOL_PROPERTY
VdW
SciTegic.value.DoubleValue
0.380

@<SCITEGIC>MOL_PROPERTY
VdW6
SciTegic.value.DoubleValue
-7.612

@<SCITEGIC>MOL_PROPERTY
VdW12
SciTegic.value.DoubleValue
7.992

@<SCITEGIC>MOL_PROPERTY
Bond
SciTegic.value.DoubleValue
0.225

@<SCITEGIC>MOL_PROPERTY
Angle
SciTegic.value.DoubleValue
1.066

@<SCITEGIC>MOL_PROPERTY
Pdih
SciTegic.value.DoubleValue
2.927

@<SCITEGIC>MOL_PROPERTY
Idih
SciTegic.value.DoubleValue
0.000

@<SCITEGIC>MOL_PROPERTY
Tether
SciTegic.value.DoubleValue
0.000

@<TRIPOS>MOLECULE
guest-s12_vm2.mol2 : vm2 ligand conformer 100
          26          25           1
SMALL
USER_CHARGES
 
@<TRIPOS>ATOM
       1    N1      19.604643   19.208967   26.074091 N.4        1 MOL1        -0.4857
       2    H1      19.647187   19.071463   27.096304 H          1 MOL1         0.3650
       3    H2      18.642179   18.948746   25.810604 H          1 MOL1         0.3650
       4    C1      20.605566   18.283440   25.400955 C.3        1 MOL1         0.0209
       5    H3      20.735654   17.424884   26.064796 H          1 MOL1         0.0967
       6    H4      21.564690   18.803594   25.338950 H          1 MOL1         0.0967
       7    C2      20.190534   17.752843   24.010349 C.3        1 MOL1        -0.1378
       8    H5      20.949405   17.029199   23.684358 H          1 MOL1         0.0993
       9    H6      19.249538   17.194154   24.099963 H          1 MOL1         0.0993
      10    C3      20.045776   18.853559   22.933389 C.3        1 MOL1        -0.1338
      11    H7      20.955726   19.467810   22.921776 H          1 MOL1         0.0993
      12    H8      19.209288   19.515556   23.191964 H          1 MOL1         0.0993
      13    C4      19.796334   18.252959   21.528877 C.3        1 MOL1        -0.1338
      14    H9      20.654136   17.633699   21.232224 H          1 MOL1         0.0993
      15    H10     18.930019   17.578600   21.575520 H          1 MOL1         0.0993
      16    C5      19.529856   19.320727   20.440145 C.3        1 MOL1        -0.1313
      17    H11     18.655253   19.925245   20.718416 H          1 MOL1         0.0993
      18    H12     19.264724   18.810593   19.503481 H          1 MOL1         0.0993
      19    C6      20.739400   20.246835   20.177866 C.3        1 MOL1        -0.2328
      20    H13     20.967573   20.869833   21.051493 H          1 MOL1         0.1004
      21    H14     20.531271   20.921704   19.337536 H          1 MOL1         0.1004
      22    H15     21.635450   19.664739   19.926371 H          1 MOL1         0.1004
      23    C7      19.895891   20.670670   25.751329 C.3        1 MOL1        -0.0781
      24    H16     19.820734   20.832651   24.675372 H          1 MOL1         0.0978
      25    H17     19.169794   21.301468   26.268958 H          1 MOL1         0.0978
      26    H18     20.904189   20.917169   26.091013 H          1 MOL1         0.0978
@<TRIPOS>BOND
    1     1     2    1
    2     1     3    1
    3     1     4    1
    4     4     5    1
    5     4     6    1
    6     4     7    1
    7     7     8    1
    8     7     9    1
    9     7    10    1
   10    10    11    1
   11    10    12    1
   12    10    13    1
   13    13    14    1
   14    13    15    1
   15    13    16    1
   16    16    17    1
   17    16    18    1
   18    16    19    1
   19    19    20    1
   20    19    21    1
   21    19    22    1
   22     1    23    1
   23    23    24    1
   24    23    25    1
   25    23    26    1
@<TRIPOS>SUBSTRUCTURE
       1 MOL1            1 RESIDUE      1      MOL     
@<SCITEGIC>MOL_PROPERTY
VM2 Rank
SciTegic.value.IntegerValue
100

@<SCITEGIC>MOL_PROPERTY
Conf_Id
SciTegic.value.IntegerValue
846

@<SCITEGIC>MOL_PROPERTY
Probability
SciTegic.value.DoubleValue
0.07

@<SCITEGIC>MOL_PROPERTY
Sum Probability
SciTegic.value.DoubleValue
98.49

@<SCITEGIC>MOL_PROPERTY
Delta G
SciTegic.value.DoubleValue
2.735

@<SCITEGIC>MOL_PROPERTY
G
SciTegic.value.DoubleValue
78.201

@<SCITEGIC>MOL_PROPERTY
E
SciTegic.value.DoubleValue
45.572

@<SCITEGIC>MOL_PROPERTY
-TS
SciTegic.value.DoubleValue
32.629

@<SCITEGIC>MOL_PROPERTY
U+W
SciTegic.value.DoubleValue
24.110

@<SCITEGIC>MOL_PROPERTY
U
SciTegic.value.DoubleValue
73.569

@<SCITEGIC>MOL_PROPERTY
W
SciTegic.value.DoubleValue
-49.459

@<SCITEGIC>MOL_PROPERTY
W(PB)
SciTegic.value.DoubleValue
-51.695

@<SCITEGIC>MOL_PROPERTY
W(SA)
SciTegic.value.DoubleValue
2.236

@<SCITEGIC>MOL_PROPERTY
Valence
SciTegic.value.DoubleValue
4.232

@<SCITEGIC>MOL_PROPERTY
Coulomb
SciTegic.value.DoubleValue
68.955

@<SCITEGIC>MOL_PROPERTY
VdW
SciTegic.value.DoubleValue
0.382

@<SCITEGIC>MOL_PROPERTY
VdW6
SciTegic.value.DoubleValue
-7.610

@<SCITEGIC>MOL_PROPERTY
VdW12
SciTegic.value.DoubleValue
7.992

@<SCITEGIC>MOL_PROPERTY
Bond
SciTegic.value.DoubleValue
0.222

@<SCITEGIC>MOL_PROPERTY
Angle
SciTegic.value.DoubleValue
1.074

@<SCITEGIC>MOL_PROPERTY
Pdih
SciTegic.value.DoubleValue
2.936

@<SCITEGIC>MOL_PROPERTY
Idih
SciTegic.value.DoubleValue
0.000

@<SCITEGIC>MOL_PROPERTY
Tether
SciTegic.value.DoubleValue
0.000

@<TRIPOS>MOLECULE
guest-s12_vm2.mol2 : vm2 ligand conformer 101
          26          25           1
SMALL
USER_CHARGES
 
@<TRIPOS>ATOM
       1    N1      20.264499   19.276641   26.097560 N.4        1 MOL1        -0.4857
       2    H1      21.275796   19.219071   25.904055 H          1 MOL1         0.3650
       3    H2      20.179207   19.125946   27.115230 H          1 MOL1         0.3650
       4    C1      19.521916   18.172170   25.362528 C.3        1 MOL1         0.0209
       5    H3      18.483950   18.487306   25.229720 H          1 MOL1         0.0967
       6    H4      19.522556   17.300287   26.021730 H          1 MOL1         0.0967
       7    C2      20.132422   17.746932   24.008266 C.3        1 MOL1        -0.1378
       8    H5      21.158618   17.390319   24.167598 H          1 MOL1         0.0993
       9    H6      19.561037   16.886643   23.635120 H          1 MOL1         0.0993
      10    C3      20.125741   18.861840   22.936206 C.3        1 MOL1        -0.1338
      11    H7      20.790114   19.678051   23.248006 H          1 MOL1         0.0993
      12    H8      19.113102   19.278544   22.856414 H          1 MOL1         0.0993
      13    C4      20.589800   18.334563   21.556995 C.3        1 MOL1        -0.1338
      14    H9      21.569628   17.849993   21.669089 H          1 MOL1         0.0993
      15    H10     19.898669   17.556064   21.205447 H          1 MOL1         0.0993
      16    C5      20.709356   19.442001   20.481930 C.3        1 MOL1        -0.1313
      17    H11     21.137696   19.003163   19.569890 H          1 MOL1         0.0993
      18    H12     21.421078   20.209685   20.816474 H          1 MOL1         0.0993
      19    C6      19.358232   20.104721   20.128754 C.3        1 MOL1        -0.2328
      20    H13     19.483227   20.813806   19.300205 H          1 MOL1         0.1004
      21    H14     18.947465   20.662045   20.979680 H          1 MOL1         0.1004
      22    H15     18.619127   19.354428   19.819278 H          1 MOL1         0.1004
      23    C7      19.706035   20.651131   25.744762 C.3        1 MOL1        -0.0781
      24    H16     19.822012   20.832820   24.675600 H          1 MOL1         0.0978
      25    H17     18.647409   20.685399   26.011124 H          1 MOL1         0.0978
      26    H18     20.250880   21.412370   26.307543 H          1 MOL1         0.0978
@<TRIPOS>BOND
    1     1     2    1
    2     1     3    1
    3     1     4    1
    4     4     5    1
    5     4     6    1
    6     4     7    1
    7     7     8    1
    8     7     9    1
    9     7    10    1
   10    10    11    1
   11    10    12    1
   12    10    13    1
   13    13    14    1
   14    13    15    1
   15    13    16    1
   16    16    17    1
   17    16    18    1
   18    16    19    1
   19    19    20    1
   20    19    21    1
   21    19    22    1
   22     1    23    1
   23    23    24    1
   24    23    25    1
   25    23    26    1
@<TRIPOS>SUBSTRUCTURE
       1 MOL1            1 RESIDUE      1      MOL     
@<SCITEGIC>MOL_PROPERTY
VM2 Rank
SciTegic.value.IntegerValue
101

@<SCITEGIC>MOL_PROPERTY
Conf_Id
SciTegic.value.IntegerValue
1355

@<SCITEGIC>MOL_PROPERTY
Probability
SciTegic.value.DoubleValue
0.07

@<SCITEGIC>MOL_PROPERTY
Sum Probability
SciTegic.value.DoubleValue
98.56

@<SCITEGIC>MOL_PROPERTY
Delta G
SciTegic.value.DoubleValue
2.740

@<SCITEGIC>MOL_PROPERTY
G
SciTegic.value.DoubleValue
78.206

@<SCITEGIC>MOL_PROPERTY
E
SciTegic.value.DoubleValue
45.578

@<SCITEGIC>MOL_PROPERTY
-TS
SciTegic.value.DoubleValue
32.629

@<SCITEGIC>MOL_PROPERTY
U+W
SciTegic.value.DoubleValue
24.116

@<SCITEGIC>MOL_PROPERTY
U
SciTegic.value.DoubleValue
73.569

@<SCITEGIC>MOL_PROPERTY
W
SciTegic.value.DoubleValue
-49.453

@<SCITEGIC>MOL_PROPERTY
W(PB)
SciTegic.value.DoubleValue
-51.698

@<SCITEGIC>MOL_PROPERTY
W(SA)
SciTegic.value.DoubleValue
2.245

@<SCITEGIC>MOL_PROPERTY
Valence
SciTegic.value.DoubleValue
4.232

@<SCITEGIC>MOL_PROPERTY
Coulomb
SciTegic.value.DoubleValue
68.955

@<SCITEGIC>MOL_PROPERTY
VdW
SciTegic.value.DoubleValue
0.382

@<SCITEGIC>MOL_PROPERTY
VdW6
SciTegic.value.DoubleValue
-7.610

@<SCITEGIC>MOL_PROPERTY
VdW12
SciTegic.value.DoubleValue
7.992

@<SCITEGIC>MOL_PROPERTY
Bond
SciTegic.value.DoubleValue
0.222

@<SCITEGIC>MOL_PROPERTY
Angle
SciTegic.value.DoubleValue
1.074

@<SCITEGIC>MOL_PROPERTY
Pdih
SciTegic.value.DoubleValue
2.936

@<SCITEGIC>MOL_PROPERTY
Idih
SciTegic.value.DoubleValue
0.000

@<SCITEGIC>MOL_PROPERTY
Tether
SciTegic.value.DoubleValue
0.000

@<TRIPOS>MOLECULE
guest-s12_vm2.mol2 : vm2 ligand conformer 102
          26          25           1
SMALL
USER_CHARGES
 
@<TRIPOS>ATOM
       1    N1      19.454855   18.767592   25.958337 N.4        1 MOL1        -0.4857
       2    H1      19.443299   18.596080   26.976222 H          1 MOL1         0.3650
       3    H2      18.992024   17.944139   25.544627 H          1 MOL1         0.3650
       4    C1      20.895456   18.859741   25.481062 C.3        1 MOL1         0.0209
       5    H3      21.496026   18.270299   26.178628 H          1 MOL1         0.0967
       6    H4      21.217356   19.900859   25.563389 H          1 MOL1         0.0967
       7    C2      21.159612   18.326260   24.055145 C.3        1 MOL1        -0.1378
       8    H5      22.242474   18.362313   23.876707 H          1 MOL1         0.0993
       9    H6      20.873354   17.267465   24.003476 H          1 MOL1         0.0993
      10    C3      20.435194   19.118778   22.941705 C.3        1 MOL1        -0.1338
      11    H7      20.654218   20.189896   23.050948 H          1 MOL1         0.0993
      12    H8      19.351617   18.994894   23.056588 H          1 MOL1         0.0993
      13    C4      20.858544   18.644808   21.530344 C.3        1 MOL1        -0.1338
      14    H9      21.952108   18.706610   21.442906 H          1 MOL1         0.0993
      15    H10     20.597907   17.585185   21.401495 H          1 MOL1         0.0993
      16    C5      20.227937   19.475051   20.385940 C.3        1 MOL1        -0.1313
      17    H11     20.659176   19.143191   19.431071 H          1 MOL1         0.0993
      18    H12     20.505969   20.532485   20.497032 H          1 MOL1         0.0993
      19    C6      18.689309   19.347610   20.308126 C.3        1 MOL1        -0.2328
      20    H13     18.304412   19.876238   19.426463 H          1 MOL1         0.1004
      21    H14     18.202978   19.782042   21.190232 H          1 MOL1         0.1004
      22    H15     18.383421   18.296371   20.228642 H          1 MOL1         0.1004
      23    C7      18.687093   20.050159   25.656340 C.3        1 MOL1        -0.0781
      24    H16     17.665889   19.950867   26.030973 H          1 MOL1         0.0978
      25    H17     19.180874   20.887348   26.154446 H          1 MOL1         0.0978
      26    H18     18.667296   20.223227   24.579665 H          1 MOL1         0.0978
@<TRIPOS>BOND
    1     1     2    1
    2     1     3    1
    3     1     4    1
    4     4     5    1
    5     4     6    1
    6     4     7    1
    7     7     8    1
    8     7     9    1
    9     7    10    1
   10    10    11    1
   11    10    12    1
   12    10    13    1
   13    13    14    1
   14    13    15    1
   15    13    16    1
   16    16    17    1
   17    16    18    1
   18    16    19    1
   19    19    20    1
   20    19    21    1
   21    19    22    1
   22     1    23    1
   23    23    24    1
   24    23    25    1
   25    23    26    1
@<TRIPOS>SUBSTRUCTURE
       1 MOL1            1 RESIDUE      1      MOL     
@<SCITEGIC>MOL_PROPERTY
VM2 Rank
SciTegic.value.IntegerValue
102

@<SCITEGIC>MOL_PROPERTY
Conf_Id
SciTegic.value.IntegerValue
1330

@<SCITEGIC>MOL_PROPERTY
Probability
SciTegic.value.DoubleValue
0.07

@<SCITEGIC>MOL_PROPERTY
Sum Probability
SciTegic.value.DoubleValue
98.63

@<SCITEGIC>MOL_PROPERTY
Delta G
SciTegic.value.DoubleValue
2.742

@<SCITEGIC>MOL_PROPERTY
G
SciTegic.value.DoubleValue
78.208

@<SCITEGIC>MOL_PROPERTY
E
SciTegic.value.DoubleValue
45.580

@<SCITEGIC>MOL_PROPERTY
-TS
SciTegic.value.DoubleValue
32.628

@<SCITEGIC>MOL_PROPERTY
U+W
SciTegic.value.DoubleValue
24.118

@<SCITEGIC>MOL_PROPERTY
U
SciTegic.value.DoubleValue
73.676

@<SCITEGIC>MOL_PROPERTY
W
SciTegic.value.DoubleValue
-49.558

@<SCITEGIC>MOL_PROPERTY
W(PB)
SciTegic.value.DoubleValue
-51.786

@<SCITEGIC>MOL_PROPERTY
W(SA)
SciTegic.value.DoubleValue
2.228

@<SCITEGIC>MOL_PROPERTY
Valence
SciTegic.value.DoubleValue
4.237

@<SCITEGIC>MOL_PROPERTY
Coulomb
SciTegic.value.DoubleValue
69.060

@<SCITEGIC>MOL_PROPERTY
VdW
SciTegic.value.DoubleValue
0.379

@<SCITEGIC>MOL_PROPERTY
VdW6
SciTegic.value.DoubleValue
-7.630

@<SCITEGIC>MOL_PROPERTY
VdW12
SciTegic.value.DoubleValue
8.009

@<SCITEGIC>MOL_PROPERTY
Bond
SciTegic.value.DoubleValue
0.224

@<SCITEGIC>MOL_PROPERTY
Angle
SciTegic.value.DoubleValue
1.074

@<SCITEGIC>MOL_PROPERTY
Pdih
SciTegic.value.DoubleValue
2.938

@<SCITEGIC>MOL_PROPERTY
Idih
SciTegic.value.DoubleValue
0.000

@<SCITEGIC>MOL_PROPERTY
Tether
SciTegic.value.DoubleValue
0.000

@<TRIPOS>MOLECULE
guest-s12_vm2.mol2 : vm2 ligand conformer 103
          26          25           1
SMALL
USER_CHARGES
 
@<TRIPOS>ATOM
       1    N1      20.784333   18.620076   25.367886 N.4        1 MOL1        -0.4857
       2    H1      21.522126   18.544978   26.086089 H          1 MOL1         0.3650
       3    H2      21.258928   18.422188   24.475491 H          1 MOL1         0.3650
       4    C1      20.229049   20.034371   25.357626 C.3        1 MOL1         0.0209
       5    H3      21.078493   20.717666   25.279745 H          1 MOL1         0.0967
       6    H4      19.757313   20.200918   26.329314 H          1 MOL1         0.0967
       7    C2      19.213140   20.368533   24.239598 C.3        1 MOL1        -0.1378
       8    H5      18.339653   19.706748   24.299859 H          1 MOL1         0.0993
       9    H6      18.832701   21.378156   24.443571 H          1 MOL1         0.0993
      10    C3      19.803453   20.361927   22.805668 C.3        1 MOL1        -0.1338
      11    H7      20.796810   20.831667   22.808682 H          1 MOL1         0.0993
      12    H8      19.168328   20.997974   22.173510 H          1 MOL1         0.0993
      13    C4      19.875655   18.957093   22.158088 C.3        1 MOL1        -0.1338
      14    H9      20.545925   18.304271   22.727303 H          1 MOL1         0.0993
      15    H10     18.881309   18.490238   22.183580 H          1 MOL1         0.0993
      16    C5      20.370340   19.025741   20.696030 C.3        1 MOL1        -0.1313
      17    H11     21.363423   19.495446   20.661803 H          1 MOL1         0.0993
      18    H12     19.697937   19.663773   20.105456 H          1 MOL1         0.0993
      19    C6      20.443875   17.625436   20.050472 C.3        1 MOL1        -0.2328
      20    H13     21.137269   16.973653   20.597777 H          1 MOL1         0.1004
      21    H14     20.795566   17.694988   19.012929 H          1 MOL1         0.1004
      22    H15     19.457708   17.143186   20.039903 H          1 MOL1         0.1004
      23    C7      19.688155   17.596823   25.641632 C.3        1 MOL1        -0.0781
      24    H16     19.217357   17.823745   26.600598 H          1 MOL1         0.0978
      25    H17     18.944649   17.642333   24.843377 H          1 MOL1         0.0978
      26    H18     20.130912   16.598896   25.675018 H          1 MOL1         0.0978
@<TRIPOS>BOND
    1     1     2    1
    2     1     3    1
    3     1     4    1
    4     4     5    1
    5     4     6    1
    6     4     7    1
    7     7     8    1
    8     7     9    1
    9     7    10    1
   10    10    11    1
   11    10    12    1
   12    10    13    1
   13    13    14    1
   14    13    15    1
   15    13    16    1
   16    16    17    1
   17    16    18    1
   18    16    19    1
   19    19    20    1
   20    19    21    1
   21    19    22    1
   22     1    23    1
   23    23    24    1
   24    23    25    1
   25    23    26    1
@<TRIPOS>SUBSTRUCTURE
       1 MOL1            1 RESIDUE      1      MOL     
@<SCITEGIC>MOL_PROPERTY
VM2 Rank
SciTegic.value.IntegerValue
103

@<SCITEGIC>MOL_PROPERTY
Conf_Id
SciTegic.value.IntegerValue
972

@<SCITEGIC>MOL_PROPERTY
Probability
SciTegic.value.DoubleValue
0.06

@<SCITEGIC>MOL_PROPERTY
Sum Probability
SciTegic.value.DoubleValue
98.69

@<SCITEGIC>MOL_PROPERTY
Delta G
SciTegic.value.DoubleValue
2.817

@<SCITEGIC>MOL_PROPERTY
G
SciTegic.value.DoubleValue
78.283

@<SCITEGIC>MOL_PROPERTY
E
SciTegic.value.DoubleValue
45.931

@<SCITEGIC>MOL_PROPERTY
-TS
SciTegic.value.DoubleValue
32.352

@<SCITEGIC>MOL_PROPERTY
U+W
SciTegic.value.DoubleValue
24.469

@<SCITEGIC>MOL_PROPERTY
U
SciTegic.value.DoubleValue
74.362

@<SCITEGIC>MOL_PROPERTY
W
SciTegic.value.DoubleValue
-49.893

@<SCITEGIC>MOL_PROPERTY
W(PB)
SciTegic.value.DoubleValue
-52.133

@<SCITEGIC>MOL_PROPERTY
W(SA)
SciTegic.value.DoubleValue
2.240

@<SCITEGIC>MOL_PROPERTY
Valence
SciTegic.value.DoubleValue
3.849

@<SCITEGIC>MOL_PROPERTY
Coulomb
SciTegic.value.DoubleValue
70.386

@<SCITEGIC>MOL_PROPERTY
VdW
SciTegic.value.DoubleValue
0.128

@<SCITEGIC>MOL_PROPERTY
VdW6
SciTegic.value.DoubleValue
-7.955

@<SCITEGIC>MOL_PROPERTY
VdW12
SciTegic.value.DoubleValue
8.083

@<SCITEGIC>MOL_PROPERTY
Bond
SciTegic.value.DoubleValue
0.231

@<SCITEGIC>MOL_PROPERTY
Angle
SciTegic.value.DoubleValue
1.284

@<SCITEGIC>MOL_PROPERTY
Pdih
SciTegic.value.DoubleValue
2.333

@<SCITEGIC>MOL_PROPERTY
Idih
SciTegic.value.DoubleValue
0.000

@<SCITEGIC>MOL_PROPERTY
Tether
SciTegic.value.DoubleValue
0.000

@<TRIPOS>MOLECULE
guest-s12_vm2.mol2 : vm2 ligand conformer 104
          26          25           1
SMALL
USER_CHARGES
 
@<TRIPOS>ATOM
       1    N1      19.971595   18.688764   26.234599 N.4        1 MOL1        -0.4857
       2    H1      20.634161   17.934005   26.000482 H          1 MOL1         0.3650
       3    H2      19.524295   18.387133   27.114709 H          1 MOL1         0.3650
       4    C1      18.913275   18.817905   25.150949 C.3        1 MOL1         0.0209
       5    H3      18.532479   19.842181   25.164672 H          1 MOL1         0.0967
       6    H4      18.091690   18.154550   25.433224 H          1 MOL1         0.0967
       7    C2      19.369384   18.433046   23.725655 C.3        1 MOL1        -0.1378
       8    H5      19.702352   17.386824   23.720756 H          1 MOL1         0.0993
       9    H6      18.487807   18.480159   23.075231 H          1 MOL1         0.0993
      10    C3      20.488429   19.340950   23.156832 C.3        1 MOL1        -0.1338
      11    H7      21.381797   19.246719   23.787313 H          1 MOL1         0.0993
      12    H8      20.177520   20.393518   23.208698 H          1 MOL1         0.0993
      13    C4      20.895057   18.989308   21.704115 C.3        1 MOL1        -0.1338
      14    H9      21.789597   19.572200   21.444325 H          1 MOL1         0.0993
      15    H10     21.190569   17.932452   21.648942 H          1 MOL1         0.0993
      16    C5      19.790327   19.279258   20.659942 C.3        1 MOL1        -0.1313
      17    H11     19.456793   20.322336   20.752194 H          1 MOL1         0.0993
      18    H12     18.912851   18.646721   20.847407 H          1 MOL1         0.0993
      19    C6      20.288016   19.027682   19.220457 C.3        1 MOL1        -0.2328
      20    H13     20.601516   17.983941   19.088060 H          1 MOL1         0.1004
      21    H14     21.141527   19.674297   18.978391 H          1 MOL1         0.1004
      22    H15     19.492241   19.235052   18.493298 H          1 MOL1         0.1004
      23    C7      20.691917   20.013088   26.464450 C.3        1 MOL1        -0.0781
      24    H16     21.189231   20.326378   25.545601 H          1 MOL1         0.0978
      25    H17     19.962433   20.768829   26.763659 H          1 MOL1         0.0978
      26    H18     21.432214   19.883494   27.257058 H          1 MOL1         0.0978
@<TRIPOS>BOND
    1     1     2    1
    2     1     3    1
    3     1     4    1
    4     4     5    1
    5     4     6    1
    6     4     7    1
    7     7     8    1
    8     7     9    1
    9     7    10    1
   10    10    11    1
   11    10    12    1
   12    10    13    1
   13    13    14    1
   14    13    15    1
   15    13    16    1
   16    16    17    1
   17    16    18    1
   18    16    19    1
   19    19    20    1
   20    19    21    1
   21    19    22    1
   22     1    23    1
   23    23    24    1
   24    23    25    1
   25    23    26    1
@<TRIPOS>SUBSTRUCTURE
       1 MOL1            1 RESIDUE      1      MOL     
@<SCITEGIC>MOL_PROPERTY
VM2 Rank
SciTegic.value.IntegerValue
104

@<SCITEGIC>MOL_PROPERTY
Conf_Id
SciTegic.value.IntegerValue
1293

@<SCITEGIC>MOL_PROPERTY
Probability
SciTegic.value.DoubleValue
0.06

@<SCITEGIC>MOL_PROPERTY
Sum Probability
SciTegic.value.DoubleValue
98.75

@<SCITEGIC>MOL_PROPERTY
Delta G
SciTegic.value.DoubleValue
2.832

@<SCITEGIC>MOL_PROPERTY
G
SciTegic.value.DoubleValue
78.298

@<SCITEGIC>MOL_PROPERTY
E
SciTegic.value.DoubleValue
45.752

@<SCITEGIC>MOL_PROPERTY
-TS
SciTegic.value.DoubleValue
32.546

@<SCITEGIC>MOL_PROPERTY
U+W
SciTegic.value.DoubleValue
24.290

@<SCITEGIC>MOL_PROPERTY
U
SciTegic.value.DoubleValue
73.757

@<SCITEGIC>MOL_PROPERTY
W
SciTegic.value.DoubleValue
-49.467

@<SCITEGIC>MOL_PROPERTY
W(PB)
SciTegic.value.DoubleValue
-51.698

@<SCITEGIC>MOL_PROPERTY
W(SA)
SciTegic.value.DoubleValue
2.231

@<SCITEGIC>MOL_PROPERTY
Valence
SciTegic.value.DoubleValue
4.422

@<SCITEGIC>MOL_PROPERTY
Coulomb
SciTegic.value.DoubleValue
68.887

@<SCITEGIC>MOL_PROPERTY
VdW
SciTegic.value.DoubleValue
0.448

@<SCITEGIC>MOL_PROPERTY
VdW6
SciTegic.value.DoubleValue
-7.490

@<SCITEGIC>MOL_PROPERTY
VdW12
SciTegic.value.DoubleValue
7.938

@<SCITEGIC>MOL_PROPERTY
Bond
SciTegic.value.DoubleValue
0.232

@<SCITEGIC>MOL_PROPERTY
Angle
SciTegic.value.DoubleValue
1.146

@<SCITEGIC>MOL_PROPERTY
Pdih
SciTegic.value.DoubleValue
3.045

@<SCITEGIC>MOL_PROPERTY
Idih
SciTegic.value.DoubleValue
0.000

@<SCITEGIC>MOL_PROPERTY
Tether
SciTegic.value.DoubleValue
0.000

@<TRIPOS>MOLECULE
guest-s12_vm2.mol2 : vm2 ligand conformer 105
          26          25           1
SMALL
USER_CHARGES
 
@<TRIPOS>ATOM
       1    N1      19.532043   18.852575   25.906372 N.4        1 MOL1        -0.4857
       2    H1      20.237415   18.485153   26.563844 H          1 MOL1         0.3650
       3    H2      18.899022   18.061118   25.712554 H          1 MOL1         0.3650
       4    C1      20.199973   19.314157   24.626968 C.3        1 MOL1         0.0209
       5    H3      20.869368   20.140445   24.879111 H          1 MOL1         0.0967
       6    H4      19.420394   19.696864   23.966692 H          1 MOL1         0.0967
       7    C2      20.999165   18.199840   23.922160 C.3        1 MOL1        -0.1378
       8    H5      21.768949   17.840650   24.618164 H          1 MOL1         0.0993
       9    H6      20.349806   17.340686   23.707631 H          1 MOL1         0.0993
      10    C3      21.694423   18.679558   22.622909 C.3        1 MOL1        -0.1338
      11    H7      22.584932   18.056175   22.461889 H          1 MOL1         0.0993
      12    H8      22.069383   19.704305   22.753027 H          1 MOL1         0.0993
      13    C4      20.823383   18.589137   21.342664 C.3        1 MOL1        -0.1338
      14    H9      21.443538   18.887826   20.486123 H          1 MOL1         0.0993
      15    H10     20.542908   17.541872   21.164095 H          1 MOL1         0.0993
      16    C5      19.548685   19.464150   21.366834 C.3        1 MOL1        -0.1313
      17    H11     19.805985   20.491994   21.658470 H          1 MOL1         0.0993
      18    H12     18.844792   19.079081   22.115971 H          1 MOL1         0.0993
      19    C6      18.844744   19.483084   19.993116 C.3        1 MOL1        -0.2328
      20    H13     17.937012   20.099195   20.031171 H          1 MOL1         0.1004
      21    H14     18.551949   18.470669   19.685685 H          1 MOL1         0.1004
      22    H15     19.501143   19.899387   19.217859 H          1 MOL1         0.1004
      23    C7      18.765583   20.007499   26.535978 C.3        1 MOL1        -0.0781
      24    H16     18.003730   20.357182   25.835805 H          1 MOL1         0.0978
      25    H17     18.289774   19.661990   27.456504 H          1 MOL1         0.0978
      26    H18     19.460807   20.818918   26.762295 H          1 MOL1         0.0978
@<TRIPOS>BOND
    1     1     2    1
    2     1     3    1
    3     1     4    1
    4     4     5    1
    5     4     6    1
    6     4     7    1
    7     7     8    1
    8     7     9    1
    9     7    10    1
   10    10    11    1
   11    10    12    1
   12    10    13    1
   13    13    14    1
   14    13    15    1
   15    13    16    1
   16    16    17    1
   17    16    18    1
   18    16    19    1
   19    19    20    1
   20    19    21    1
   21    19    22    1
   22     1    23    1
   23    23    24    1
   24    23    25    1
   25    23    26    1
@<TRIPOS>SUBSTRUCTURE
       1 MOL1            1 RESIDUE      1      MOL     
@<SCITEGIC>MOL_PROPERTY
VM2 Rank
SciTegic.value.IntegerValue
105

@<SCITEGIC>MOL_PROPERTY
Conf_Id
SciTegic.value.IntegerValue
1306

@<SCITEGIC>MOL_PROPERTY
Probability
SciTegic.value.DoubleValue
0.05

@<SCITEGIC>MOL_PROPERTY
Sum Probability
SciTegic.value.DoubleValue
98.81

@<SCITEGIC>MOL_PROPERTY
Delta G
SciTegic.value.DoubleValue
2.918

@<SCITEGIC>MOL_PROPERTY
G
SciTegic.value.DoubleValue
78.384

@<SCITEGIC>MOL_PROPERTY
E
SciTegic.value.DoubleValue
45.898

@<SCITEGIC>MOL_PROPERTY
-TS
SciTegic.value.DoubleValue
32.486

@<SCITEGIC>MOL_PROPERTY
U+W
SciTegic.value.DoubleValue
24.436

@<SCITEGIC>MOL_PROPERTY
U
SciTegic.value.DoubleValue
73.891

@<SCITEGIC>MOL_PROPERTY
W
SciTegic.value.DoubleValue
-49.455

@<SCITEGIC>MOL_PROPERTY
W(PB)
SciTegic.value.DoubleValue
-51.734

@<SCITEGIC>MOL_PROPERTY
W(SA)
SciTegic.value.DoubleValue
2.278

@<SCITEGIC>MOL_PROPERTY
Valence
SciTegic.value.DoubleValue
4.111

@<SCITEGIC>MOL_PROPERTY
Coulomb
SciTegic.value.DoubleValue
69.672

@<SCITEGIC>MOL_PROPERTY
VdW
SciTegic.value.DoubleValue
0.108

@<SCITEGIC>MOL_PROPERTY
VdW6
SciTegic.value.DoubleValue
-6.998

@<SCITEGIC>MOL_PROPERTY
VdW12
SciTegic.value.DoubleValue
7.106

@<SCITEGIC>MOL_PROPERTY
Bond
SciTegic.value.DoubleValue
0.196

@<SCITEGIC>MOL_PROPERTY
Angle
SciTegic.value.DoubleValue
1.122

@<SCITEGIC>MOL_PROPERTY
Pdih
SciTegic.value.DoubleValue
2.794

@<SCITEGIC>MOL_PROPERTY
Idih
SciTegic.value.DoubleValue
0.000

@<SCITEGIC>MOL_PROPERTY
Tether
SciTegic.value.DoubleValue
0.000

@<TRIPOS>MOLECULE
guest-s12_vm2.mol2 : vm2 ligand conformer 106
          26          25           1
SMALL
USER_CHARGES
 
@<TRIPOS>ATOM
       1    N1      19.757463   18.675178   26.342434 N.4        1 MOL1        -0.4857
       2    H1      19.997595   17.671909   26.345415 H          1 MOL1         0.3650
       3    H2      19.221128   18.819033   27.212739 H          1 MOL1         0.3650
       4    C1      18.868801   18.997229   25.148561 C.3        1 MOL1         0.0209
       5    H3      18.629579   20.063330   25.170359 H          1 MOL1         0.0967
       6    H4      17.938433   18.445086   25.304616 H          1 MOL1         0.0967
       7    C2      19.434331   18.606194   23.764864 C.3        1 MOL1        -0.1378
       8    H5      20.082096   17.724820   23.860231 H          1 MOL1         0.0993
       9    H6      18.588036   18.302940   23.136192 H          1 MOL1         0.0993
      10    C3      20.188536   19.766050   23.065954 C.3        1 MOL1        -0.1338
      11    H7      20.979709   20.145706   23.723096 H          1 MOL1         0.0993
      12    H8      19.499981   20.606799   22.903723 H          1 MOL1         0.0993
      13    C4      20.835306   19.359938   21.718474 C.3        1 MOL1        -0.1338
      14    H9      21.437847   20.203526   21.354139 H          1 MOL1         0.0993
      15    H10     21.536294   18.529796   21.882164 H          1 MOL1         0.0993
      16    C5      19.809110   18.968863   20.628395 C.3        1 MOL1        -0.1313
      17    H11     19.074588   19.776638   20.502888 H          1 MOL1         0.0993
      18    H12     19.250460   18.074941   20.935820 H          1 MOL1         0.0993
      19    C6      20.495868   18.687677   19.274756 C.3        1 MOL1        -0.2328
      20    H13     21.032605   19.573956   18.911976 H          1 MOL1         0.1004
      21    H14     19.754717   18.408846   18.514514 H          1 MOL1         0.1004
      22    H15     21.215967   17.863551   19.361229 H          1 MOL1         0.1004
      23    C7      21.018584   19.528871   26.373562 C.3        1 MOL1        -0.0781
      24    H16     20.739372   20.584385   26.347227 H          1 MOL1         0.0978
      25    H17     21.570753   19.315685   27.291567 H          1 MOL1         0.0978
      26    H18     21.639517   19.284088   25.509886 H          1 MOL1         0.0978
@<TRIPOS>BOND
    1     1     2    1
    2     1     3    1
    3     1     4    1
    4     4     5    1
    5     4     6    1
    6     4     7    1
    7     7     8    1
    8     7     9    1
    9     7    10    1
   10    10    11    1
   11    10    12    1
   12    10    13    1
   13    13    14    1
   14    13    15    1
   15    13    16    1
   16    16    17    1
   17    16    18    1
   18    16    19    1
   19    19    20    1
   20    19    21    1
   21    19    22    1
   22     1    23    1
   23    23    24    1
   24    23    25    1
   25    23    26    1
@<TRIPOS>SUBSTRUCTURE
       1 MOL1            1 RESIDUE      1      MOL     
@<SCITEGIC>MOL_PROPERTY
VM2 Rank
SciTegic.value.IntegerValue
106

@<SCITEGIC>MOL_PROPERTY
Conf_Id
SciTegic.value.IntegerValue
163

@<SCITEGIC>MOL_PROPERTY
Probability
SciTegic.value.DoubleValue
0.05

@<SCITEGIC>MOL_PROPERTY
Sum Probability
SciTegic.value.DoubleValue
98.86

@<SCITEGIC>MOL_PROPERTY
Delta G
SciTegic.value.DoubleValue
2.926

@<SCITEGIC>MOL_PROPERTY
G
SciTegic.value.DoubleValue
78.392

@<SCITEGIC>MOL_PROPERTY
E
SciTegic.value.DoubleValue
45.923

@<SCITEGIC>MOL_PROPERTY
-TS
SciTegic.value.DoubleValue
32.469

@<SCITEGIC>MOL_PROPERTY
U+W
SciTegic.value.DoubleValue
24.461

@<SCITEGIC>MOL_PROPERTY
U
SciTegic.value.DoubleValue
73.840

@<SCITEGIC>MOL_PROPERTY
W
SciTegic.value.DoubleValue
-49.380

@<SCITEGIC>MOL_PROPERTY
W(PB)
SciTegic.value.DoubleValue
-51.644

@<SCITEGIC>MOL_PROPERTY
W(SA)
SciTegic.value.DoubleValue
2.264

@<SCITEGIC>MOL_PROPERTY
Valence
SciTegic.value.DoubleValue
4.494

@<SCITEGIC>MOL_PROPERTY
Coulomb
SciTegic.value.DoubleValue
68.796

@<SCITEGIC>MOL_PROPERTY
VdW
SciTegic.value.DoubleValue
0.550

@<SCITEGIC>MOL_PROPERTY
VdW6
SciTegic.value.DoubleValue
-7.478

@<SCITEGIC>MOL_PROPERTY
VdW12
SciTegic.value.DoubleValue
8.029

@<SCITEGIC>MOL_PROPERTY
Bond
SciTegic.value.DoubleValue
0.238

@<SCITEGIC>MOL_PROPERTY
Angle
SciTegic.value.DoubleValue
1.175

@<SCITEGIC>MOL_PROPERTY
Pdih
SciTegic.value.DoubleValue
3.082

@<SCITEGIC>MOL_PROPERTY
Idih
SciTegic.value.DoubleValue
0.000

@<SCITEGIC>MOL_PROPERTY
Tether
SciTegic.value.DoubleValue
0.000

@<TRIPOS>MOLECULE
guest-s12_vm2.mol2 : vm2 ligand conformer 107
          26          25           1
SMALL
USER_CHARGES
 
@<TRIPOS>ATOM
       1    N1      20.000284   18.691693   26.235677 N.4        1 MOL1        -0.4857
       2    H1      20.436658   18.480574   27.147081 H          1 MOL1         0.3650
       3    H2      19.522158   17.820168   25.961263 H          1 MOL1         0.3650
       4    C1      21.083784   19.039943   25.227820 C.3        1 MOL1         0.0209
       5    H3      22.000725   18.554410   25.571620 H          1 MOL1         0.0967
       6    H4      21.247691   20.119933   25.260837 H          1 MOL1         0.0967
       7    C2      20.815801   18.581019   23.776891 C.3        1 MOL1        -0.1378
       8    H5      21.712989   18.809990   23.189460 H          1 MOL1         0.0993
       9    H6      20.702355   17.489152   23.756207 H          1 MOL1         0.0993
      10    C3      19.578977   19.248023   23.124598 C.3        1 MOL1        -0.1338
      11    H7      19.666301   20.341313   23.190536 H          1 MOL1         0.0993
      12    H8      18.681186   18.970662   23.691637 H          1 MOL1         0.0993
      13    C4      19.354567   18.831807   21.649539 C.3        1 MOL1        -0.1338
      14    H9      19.283421   17.737452   21.581414 H          1 MOL1         0.0993
      15    H10     18.381088   19.223652   21.323573 H          1 MOL1         0.0993
      16    C5      20.448207   19.346546   20.683207 C.3        1 MOL1        -0.1313
      17    H11     21.420129   18.903197   20.936221 H          1 MOL1         0.0993
      18    H12     20.556639   20.434839   20.791035 H          1 MOL1         0.0993
      19    C6      20.113733   19.009740   19.214263 C.3        1 MOL1        -0.2328
      20    H13     20.027803   17.925134   19.067796 H          1 MOL1         0.1004
      21    H14     20.900081   19.378877   18.543131 H          1 MOL1         0.1004
      22    H15     19.166207   19.472119   18.908345 H          1 MOL1         0.1004
      23    C7      19.012648   19.841230   26.405006 C.3        1 MOL1        -0.0781
      24    H16     19.551406   20.726829   26.748915 H          1 MOL1         0.0978
      25    H17     18.527658   20.053845   25.451417 H          1 MOL1         0.0978
      26    H18     18.260358   19.558963   27.144903 H          1 MOL1         0.0978
@<TRIPOS>BOND
    1     1     2    1
    2     1     3    1
    3     1     4    1
    4     4     5    1
    5     4     6    1
    6     4     7    1
    7     7     8    1
    8     7     9    1
    9     7    10    1
   10    10    11    1
   11    10    12    1
   12    10    13    1
   13    13    14    1
   14    13    15    1
   15    13    16    1
   16    16    17    1
   17    16    18    1
   18    16    19    1
   19    19    20    1
   20    19    21    1
   21    19    22    1
   22     1    23    1
   23    23    24    1
   24    23    25    1
   25    23    26    1
@<TRIPOS>SUBSTRUCTURE
       1 MOL1            1 RESIDUE      1      MOL     
@<SCITEGIC>MOL_PROPERTY
VM2 Rank
SciTegic.value.IntegerValue
107

@<SCITEGIC>MOL_PROPERTY
Conf_Id
SciTegic.value.IntegerValue
1053

@<SCITEGIC>MOL_PROPERTY
Probability
SciTegic.value.DoubleValue
0.05

@<SCITEGIC>MOL_PROPERTY
Sum Probability
SciTegic.value.DoubleValue
98.91

@<SCITEGIC>MOL_PROPERTY
Delta G
SciTegic.value.DoubleValue
2.934

@<SCITEGIC>MOL_PROPERTY
G
SciTegic.value.DoubleValue
78.400

@<SCITEGIC>MOL_PROPERTY
E
SciTegic.value.DoubleValue
45.854

@<SCITEGIC>MOL_PROPERTY
-TS
SciTegic.value.DoubleValue
32.546

@<SCITEGIC>MOL_PROPERTY
U+W
SciTegic.value.DoubleValue
24.392

@<SCITEGIC>MOL_PROPERTY
U
SciTegic.value.DoubleValue
73.757

@<SCITEGIC>MOL_PROPERTY
W
SciTegic.value.DoubleValue
-49.365

@<SCITEGIC>MOL_PROPERTY
W(PB)
SciTegic.value.DoubleValue
-51.644

@<SCITEGIC>MOL_PROPERTY
W(SA)
SciTegic.value.DoubleValue
2.279

@<SCITEGIC>MOL_PROPERTY
Valence
SciTegic.value.DoubleValue
4.422

@<SCITEGIC>MOL_PROPERTY
Coulomb
SciTegic.value.DoubleValue
68.887

@<SCITEGIC>MOL_PROPERTY
VdW
SciTegic.value.DoubleValue
0.448

@<SCITEGIC>MOL_PROPERTY
VdW6
SciTegic.value.DoubleValue
-7.490

@<SCITEGIC>MOL_PROPERTY
VdW12
SciTegic.value.DoubleValue
7.937

@<SCITEGIC>MOL_PROPERTY
Bond
SciTegic.value.DoubleValue
0.232

@<SCITEGIC>MOL_PROPERTY
Angle
SciTegic.value.DoubleValue
1.146

@<SCITEGIC>MOL_PROPERTY
Pdih
SciTegic.value.DoubleValue
3.044

@<SCITEGIC>MOL_PROPERTY
Idih
SciTegic.value.DoubleValue
0.000

@<SCITEGIC>MOL_PROPERTY
Tether
SciTegic.value.DoubleValue
0.000

@<TRIPOS>MOLECULE
guest-s12_vm2.mol2 : vm2 ligand conformer 108
          26          25           1
SMALL
USER_CHARGES
 
@<TRIPOS>ATOM
       1    N1      20.419655   18.943412   25.937697 N.4        1 MOL1        -0.4857
       2    H1      21.211915   18.298119   25.794153 H          1 MOL1         0.3650
       3    H2      19.759219   18.435850   26.546813 H          1 MOL1         0.3650
       4    C1      19.763094   19.269418   24.611533 C.3        1 MOL1         0.0209
       5    H3      20.493145   19.806935   24.004676 H          1 MOL1         0.0967
       6    H4      18.924229   19.941092   24.810470 H          1 MOL1         0.0967
       7    C2      19.257461   18.021482   23.860432 C.3        1 MOL1        -0.1378
       8    H5      20.080746   17.313215   23.697971 H          1 MOL1         0.0993
       9    H6      18.529593   17.508798   24.503370 H          1 MOL1         0.0993
      10    C3      18.572138   18.359903   22.512333 C.3        1 MOL1        -0.1338
      11    H7      17.989370   19.286591   22.608589 H          1 MOL1         0.0993
      12    H8      17.839725   17.570366   22.293832 H          1 MOL1         0.0993
      13    C4      19.530868   18.456877   21.296871 C.3        1 MOL1        -0.1338
      14    H9      20.029243   17.489345   21.145807 H          1 MOL1         0.0993
      15    H10     18.924606   18.630100   20.396921 H          1 MOL1         0.0993
      16    C5      20.597270   19.571505   21.404015 C.3        1 MOL1        -0.1313
      17    H11     21.310266   19.331454   22.203366 H          1 MOL1         0.0993
      18    H12     20.117544   20.523911   21.669539 H          1 MOL1         0.0993
      19    C6      21.377300   19.742333   20.082893 C.3        1 MOL1        -0.2328
      20    H13     22.136645   20.529083   20.180033 H          1 MOL1         0.1004
      21    H14     20.706209   20.022751   19.260583 H          1 MOL1         0.1004
      22    H15     21.889700   18.812335   19.804003 H          1 MOL1         0.1004
      23    C7      20.890214   20.225070   26.611226 C.3        1 MOL1        -0.0781
      24    H16     21.360679   19.976443   27.565157 H          1 MOL1         0.0978
      25    H17     21.612389   20.727028   25.963582 H          1 MOL1         0.0978
      26    H18     20.030877   20.877061   26.782700 H          1 MOL1         0.0978
@<TRIPOS>BOND
    1     1     2    1
    2     1     3    1
    3     1     4    1
    4     4     5    1
    5     4     6    1
    6     4     7    1
    7     7     8    1
    8     7     9    1
    9     7    10    1
   10    10    11    1
   11    10    12    1
   12    10    13    1
   13    13    14    1
   14    13    15    1
   15    13    16    1
   16    16    17    1
   17    16    18    1
   18    16    19    1
   19    19    20    1
   20    19    21    1
   21    19    22    1
   22     1    23    1
   23    23    24    1
   24    23    25    1
   25    23    26    1
@<TRIPOS>SUBSTRUCTURE
       1 MOL1            1 RESIDUE      1      MOL     
@<SCITEGIC>MOL_PROPERTY
VM2 Rank
SciTegic.value.IntegerValue
108

@<SCITEGIC>MOL_PROPERTY
Conf_Id
SciTegic.value.IntegerValue
246

@<SCITEGIC>MOL_PROPERTY
Probability
SciTegic.value.DoubleValue
0.05

@<SCITEGIC>MOL_PROPERTY
Sum Probability
SciTegic.value.DoubleValue
98.96

@<SCITEGIC>MOL_PROPERTY
Delta G
SciTegic.value.DoubleValue
2.977

@<SCITEGIC>MOL_PROPERTY
G
SciTegic.value.DoubleValue
78.443

@<SCITEGIC>MOL_PROPERTY
E
SciTegic.value.DoubleValue
45.956

@<SCITEGIC>MOL_PROPERTY
-TS
SciTegic.value.DoubleValue
32.486

@<SCITEGIC>MOL_PROPERTY
U+W
SciTegic.value.DoubleValue
24.495

@<SCITEGIC>MOL_PROPERTY
U
SciTegic.value.DoubleValue
73.891

@<SCITEGIC>MOL_PROPERTY
W
SciTegic.value.DoubleValue
-49.397

@<SCITEGIC>MOL_PROPERTY
W(PB)
SciTegic.value.DoubleValue
-51.698

@<SCITEGIC>MOL_PROPERTY
W(SA)
SciTegic.value.DoubleValue
2.301

@<SCITEGIC>MOL_PROPERTY
Valence
SciTegic.value.DoubleValue
4.111

@<SCITEGIC>MOL_PROPERTY
Coulomb
SciTegic.value.DoubleValue
69.672

@<SCITEGIC>MOL_PROPERTY
VdW
SciTegic.value.DoubleValue
0.108

@<SCITEGIC>MOL_PROPERTY
VdW6
SciTegic.value.DoubleValue
-6.998

@<SCITEGIC>MOL_PROPERTY
VdW12
SciTegic.value.DoubleValue
7.106

@<SCITEGIC>MOL_PROPERTY
Bond
SciTegic.value.DoubleValue
0.196

@<SCITEGIC>MOL_PROPERTY
Angle
SciTegic.value.DoubleValue
1.121

@<SCITEGIC>MOL_PROPERTY
Pdih
SciTegic.value.DoubleValue
2.794

@<SCITEGIC>MOL_PROPERTY
Idih
SciTegic.value.DoubleValue
0.000

@<SCITEGIC>MOL_PROPERTY
Tether
SciTegic.value.DoubleValue
0.000

@<TRIPOS>MOLECULE
guest-s12_vm2.mol2 : vm2 ligand conformer 109
          26          25           1
SMALL
USER_CHARGES
 
@<TRIPOS>ATOM
       1    N1      19.697642   18.175807   25.277213 N.4        1 MOL1        -0.4857
       2    H1      19.837787   17.764421   24.343917 H          1 MOL1         0.3650
       3    H2      19.010674   17.562352   25.743795 H          1 MOL1         0.3650
       4    C1      19.122896   19.578362   25.153149 C.3        1 MOL1         0.0209
       5    H3      19.063803   19.986532   26.165261 H          1 MOL1         0.0967
       6    H4      18.103387   19.490406   24.769273 H          1 MOL1         0.0967
       7    C2      19.917551   20.557442   24.257807 C.3        1 MOL1        -0.1378
       8    H5      19.606540   21.575762   24.525959 H          1 MOL1         0.0993
       9    H6      20.989377   20.505410   24.486749 H          1 MOL1         0.0993
      10    C3      19.684054   20.377979   22.735679 C.3        1 MOL1        -0.1338
      11    H7      20.190311   21.202797   22.215236 H          1 MOL1         0.0993
      12    H8      18.613657   20.487749   22.512814 H          1 MOL1         0.0993
      13    C4      20.197434   19.035688   22.162031 C.3        1 MOL1        -0.1338
      14    H9      21.230485   18.861718   22.493947 H          1 MOL1         0.0993
      15    H10     19.586102   18.209295   22.543968 H          1 MOL1         0.0993
      16    C5      20.144313   19.014223   20.618088 C.3        1 MOL1        -0.1313
      17    H11     20.758986   19.830474   20.213233 H          1 MOL1         0.0993
      18    H12     19.114440   19.195464   20.279581 H          1 MOL1         0.0993
      19    C6      20.641919   17.669002   20.047329 C.3        1 MOL1        -0.2328
      20    H13     21.681450   17.475116   20.342281 H          1 MOL1         0.1004
      21    H14     20.598764   17.673816   18.950450 H          1 MOL1         0.1004
      22    H15     20.023836   16.835019   20.404537 H          1 MOL1         0.1004
      23    C7      21.002190   18.181497   26.065704 C.3        1 MOL1        -0.0781
      24    H16     20.821419   18.608220   27.054651 H          1 MOL1         0.0978
      25    H17     21.362345   17.155359   26.167525 H          1 MOL1         0.0978
      26    H18     21.744792   18.779477   25.534016 H          1 MOL1         0.0978
@<TRIPOS>BOND
    1     1     2    1
    2     1     3    1
    3     1     4    1
    4     4     5    1
    5     4     6    1
    6     4     7    1
    7     7     8    1
    8     7     9    1
    9     7    10    1
   10    10    11    1
   11    10    12    1
   12    10    13    1
   13    13    14    1
   14    13    15    1
   15    13    16    1
   16    16    17    1
   17    16    18    1
   18    16    19    1
   19    19    20    1
   20    19    21    1
   21    19    22    1
   22     1    23    1
   23    23    24    1
   24    23    25    1
   25    23    26    1
@<TRIPOS>SUBSTRUCTURE
       1 MOL1            1 RESIDUE      1      MOL     
@<SCITEGIC>MOL_PROPERTY
VM2 Rank
SciTegic.value.IntegerValue
109

@<SCITEGIC>MOL_PROPERTY
Conf_Id
SciTegic.value.IntegerValue
755

@<SCITEGIC>MOL_PROPERTY
Probability
SciTegic.value.DoubleValue
0.04

@<SCITEGIC>MOL_PROPERTY
Sum Probability
SciTegic.value.DoubleValue
99.00

@<SCITEGIC>MOL_PROPERTY
Delta G
SciTegic.value.DoubleValue
3.059

@<SCITEGIC>MOL_PROPERTY
G
SciTegic.value.DoubleValue
78.525

@<SCITEGIC>MOL_PROPERTY
E
SciTegic.value.DoubleValue
46.150

@<SCITEGIC>MOL_PROPERTY
-TS
SciTegic.value.DoubleValue
32.375

@<SCITEGIC>MOL_PROPERTY
U+W
SciTegic.value.DoubleValue
24.688

@<SCITEGIC>MOL_PROPERTY
U
SciTegic.value.DoubleValue
74.427

@<SCITEGIC>MOL_PROPERTY
W
SciTegic.value.DoubleValue
-49.738

@<SCITEGIC>MOL_PROPERTY
W(PB)
SciTegic.value.DoubleValue
-51.983

@<SCITEGIC>MOL_PROPERTY
W(SA)
SciTegic.value.DoubleValue
2.244

@<SCITEGIC>MOL_PROPERTY
Valence
SciTegic.value.DoubleValue
3.638

@<SCITEGIC>MOL_PROPERTY
Coulomb
SciTegic.value.DoubleValue
70.620

@<SCITEGIC>MOL_PROPERTY
VdW
SciTegic.value.DoubleValue
0.169

@<SCITEGIC>MOL_PROPERTY
VdW6
SciTegic.value.DoubleValue
-7.761

@<SCITEGIC>MOL_PROPERTY
VdW12
SciTegic.value.DoubleValue
7.931

@<SCITEGIC>MOL_PROPERTY
Bond
SciTegic.value.DoubleValue
0.224

@<SCITEGIC>MOL_PROPERTY
Angle
SciTegic.value.DoubleValue
1.176

@<SCITEGIC>MOL_PROPERTY
Pdih
SciTegic.value.DoubleValue
2.238

@<SCITEGIC>MOL_PROPERTY
Idih
SciTegic.value.DoubleValue
0.000

@<SCITEGIC>MOL_PROPERTY
Tether
SciTegic.value.DoubleValue
0.000

@<TRIPOS>MOLECULE
guest-s12_vm2.mol2 : vm2 ligand conformer 110
          26          25           1
SMALL
USER_CHARGES
 
@<TRIPOS>ATOM
       1    N1      20.053146   19.699162   26.002267 N.4        1 MOL1        -0.4857
       2    H1      20.328572   20.621290   26.375990 H          1 MOL1         0.3650
       3    H2      20.439129   19.014821   26.670907 H          1 MOL1         0.3650
       4    C1      20.672769   19.500335   24.629584 C.3        1 MOL1         0.0209
       5    H3      21.730948   19.761685   24.710451 H          1 MOL1         0.0967
       6    H4      20.202791   20.211009   23.948159 H          1 MOL1         0.0967
       7    C2      20.555380   18.062236   24.078292 C.3        1 MOL1        -0.1378
       8    H5      21.028881   17.382592   24.799072 H          1 MOL1         0.0993
       9    H6      19.503556   17.756412   24.009660 H          1 MOL1         0.0993
      10    C3      21.246396   17.883604   22.702843 C.3        1 MOL1        -0.1338
      11    H7      21.564899   16.835727   22.613335 H          1 MOL1         0.0993
      12    H8      22.169487   18.478630   22.665108 H          1 MOL1         0.0993
      13    C4      20.352972   18.207271   21.476912 C.3        1 MOL1        -0.1338
      14    H9      20.928005   17.986655   20.566905 H          1 MOL1         0.0993
      15    H10     19.490210   17.526992   21.463704 H          1 MOL1         0.0993
      16    C5      19.853120   19.669121   21.412005 C.3        1 MOL1        -0.1313
      17    H11     20.699021   20.359437   21.536897 H          1 MOL1         0.0993
      18    H12     19.151363   19.861182   22.234073 H          1 MOL1         0.0993
      19    C6      19.141033   19.968808   20.075578 C.3        1 MOL1        -0.2328
      20    H13     19.820277   19.827009   19.224868 H          1 MOL1         0.1004
      21    H14     18.783691   21.006454   20.050927 H          1 MOL1         0.1004
      22    H15     18.273901   19.310556   19.934134 H          1 MOL1         0.1004
      23    C7      18.533183   19.599464   25.939519 C.3        1 MOL1        -0.0781
      24    H16     18.153121   20.347307   25.240177 H          1 MOL1         0.0978
      25    H17     18.249387   18.599989   25.604137 H          1 MOL1         0.0978
      26    H18     18.122026   19.782918   26.934697 H          1 MOL1         0.0978
@<TRIPOS>BOND
    1     1     2    1
    2     1     3    1
    3     1     4    1
    4     4     5    1
    5     4     6    1
    6     4     7    1
    7     7     8    1
    8     7     9    1
    9     7    10    1
   10    10    11    1
   11    10    12    1
   12    10    13    1
   13    13    14    1
   14    13    15    1
   15    13    16    1
   16    16    17    1
   17    16    18    1
   18    16    19    1
   19    19    20    1
   20    19    21    1
   21    19    22    1
   22     1    23    1
   23    23    24    1
   24    23    25    1
   25    23    26    1
@<TRIPOS>SUBSTRUCTURE
       1 MOL1            1 RESIDUE      1      MOL     
@<SCITEGIC>MOL_PROPERTY
VM2 Rank
SciTegic.value.IntegerValue
110

@<SCITEGIC>MOL_PROPERTY
Conf_Id
SciTegic.value.IntegerValue
1051

@<SCITEGIC>MOL_PROPERTY
Probability
SciTegic.value.DoubleValue
0.04

@<SCITEGIC>MOL_PROPERTY
Sum Probability
SciTegic.value.DoubleValue
99.04

@<SCITEGIC>MOL_PROPERTY
Delta G
SciTegic.value.DoubleValue
3.087

@<SCITEGIC>MOL_PROPERTY
G
SciTegic.value.DoubleValue
78.553

@<SCITEGIC>MOL_PROPERTY
E
SciTegic.value.DoubleValue
45.905

@<SCITEGIC>MOL_PROPERTY
-TS
SciTegic.value.DoubleValue
32.648

@<SCITEGIC>MOL_PROPERTY
U+W
SciTegic.value.DoubleValue
24.443

@<SCITEGIC>MOL_PROPERTY
U
SciTegic.value.DoubleValue
74.229

@<SCITEGIC>MOL_PROPERTY
W
SciTegic.value.DoubleValue
-49.785

@<SCITEGIC>MOL_PROPERTY
W(PB)
SciTegic.value.DoubleValue
-52.042

@<SCITEGIC>MOL_PROPERTY
W(SA)
SciTegic.value.DoubleValue
2.257

@<SCITEGIC>MOL_PROPERTY
Valence
SciTegic.value.DoubleValue
4.376

@<SCITEGIC>MOL_PROPERTY
Coulomb
SciTegic.value.DoubleValue
69.549

@<SCITEGIC>MOL_PROPERTY
VdW
SciTegic.value.DoubleValue
0.304

@<SCITEGIC>MOL_PROPERTY
VdW6
SciTegic.value.DoubleValue
-7.808

@<SCITEGIC>MOL_PROPERTY
VdW12
SciTegic.value.DoubleValue
8.111

@<SCITEGIC>MOL_PROPERTY
Bond
SciTegic.value.DoubleValue
0.233

@<SCITEGIC>MOL_PROPERTY
Angle
SciTegic.value.DoubleValue
1.219

@<SCITEGIC>MOL_PROPERTY
Pdih
SciTegic.value.DoubleValue
2.924

@<SCITEGIC>MOL_PROPERTY
Idih
SciTegic.value.DoubleValue
0.000

@<SCITEGIC>MOL_PROPERTY
Tether
SciTegic.value.DoubleValue
0.000

@<TRIPOS>MOLECULE
guest-s12_vm2.mol2 : vm2 ligand conformer 111
          26          25           1
SMALL
USER_CHARGES
 
@<TRIPOS>ATOM
       1    N1      19.502403   18.515737   25.277504 N.4        1 MOL1        -0.4857
       2    H1      19.932658   17.615328   25.540137 H          1 MOL1         0.3650
       3    H2      19.080204   18.359862   24.351065 H          1 MOL1         0.3650
       4    C1      20.564865   19.595020   25.193447 C.3        1 MOL1         0.0209
       5    H3      21.009910   19.679256   26.188141 H          1 MOL1         0.0967
       6    H4      20.076995   20.544282   24.958448 H          1 MOL1         0.0967
       7    C2      21.680264   19.311557   24.165245 C.3        1 MOL1        -0.1378
       8    H5      22.565249   19.889134   24.463663 H          1 MOL1         0.0993
       9    H6      21.979046   18.256068   24.215341 H          1 MOL1         0.0993
      10    C3      21.325475   19.704417   22.708075 C.3        1 MOL1        -0.1338
      11    H7      22.217589   19.549159   22.085537 H          1 MOL1         0.0993
      12    H8      21.105343   20.780113   22.663450 H          1 MOL1         0.0993
      13    C4      20.144230   18.911561   22.099413 C.3        1 MOL1        -0.1338
      14    H9      20.308916   17.834398   22.240976 H          1 MOL1         0.0993
      15    H10     19.213599   19.173839   22.618022 H          1 MOL1         0.0993
      16    C5      19.970117   19.208958   20.593357 C.3        1 MOL1        -0.1313
      17    H11     20.890409   18.945601   20.053247 H          1 MOL1         0.0993
      18    H12     19.812339   20.286334   20.443538 H          1 MOL1         0.0993
      19    C6      18.782695   18.428697   19.989865 C.3        1 MOL1        -0.2328
      20    H13     17.840424   18.697518   20.484874 H          1 MOL1         0.1004
      21    H14     18.927416   17.345548   20.094987 H          1 MOL1         0.1004
      22    H15     18.676160   18.651582   18.920283 H          1 MOL1         0.1004
      23    C7      18.437950   18.914053   26.290095 C.3        1 MOL1        -0.0781
      24    H16     18.904234   19.041723   27.269486 H          1 MOL1         0.0978
      25    H17     17.975788   19.852231   25.975206 H          1 MOL1         0.0978
      26    H18     17.680614   18.128635   26.341796 H          1 MOL1         0.0978
@<TRIPOS>BOND
    1     1     2    1
    2     1     3    1
    3     1     4    1
    4     4     5    1
    5     4     6    1
    6     4     7    1
    7     7     8    1
    8     7     9    1
    9     7    10    1
   10    10    11    1
   11    10    12    1
   12    10    13    1
   13    13    14    1
   14    13    15    1
   15    13    16    1
   16    16    17    1
   17    16    18    1
   18    16    19    1
   19    19    20    1
   20    19    21    1
   21    19    22    1
   22     1    23    1
   23    23    24    1
   24    23    25    1
   25    23    26    1
@<TRIPOS>SUBSTRUCTURE
       1 MOL1            1 RESIDUE      1      MOL     
@<SCITEGIC>MOL_PROPERTY
VM2 Rank
SciTegic.value.IntegerValue
111

@<SCITEGIC>MOL_PROPERTY
Conf_Id
SciTegic.value.IntegerValue
929

@<SCITEGIC>MOL_PROPERTY
Probability
SciTegic.value.DoubleValue
0.04

@<SCITEGIC>MOL_PROPERTY
Sum Probability
SciTegic.value.DoubleValue
99.08

@<SCITEGIC>MOL_PROPERTY
Delta G
SciTegic.value.DoubleValue
3.116

@<SCITEGIC>MOL_PROPERTY
G
SciTegic.value.DoubleValue
78.582

@<SCITEGIC>MOL_PROPERTY
E
SciTegic.value.DoubleValue
46.237

@<SCITEGIC>MOL_PROPERTY
-TS
SciTegic.value.DoubleValue
32.346

@<SCITEGIC>MOL_PROPERTY
U+W
SciTegic.value.DoubleValue
24.775

@<SCITEGIC>MOL_PROPERTY
U
SciTegic.value.DoubleValue
73.983

@<SCITEGIC>MOL_PROPERTY
W
SciTegic.value.DoubleValue
-49.207

@<SCITEGIC>MOL_PROPERTY
W(PB)
SciTegic.value.DoubleValue
-51.488

@<SCITEGIC>MOL_PROPERTY
W(SA)
SciTegic.value.DoubleValue
2.280

@<SCITEGIC>MOL_PROPERTY
Valence
SciTegic.value.DoubleValue
3.347

@<SCITEGIC>MOL_PROPERTY
Coulomb
SciTegic.value.DoubleValue
70.654

@<SCITEGIC>MOL_PROPERTY
VdW
SciTegic.value.DoubleValue
-0.018

@<SCITEGIC>MOL_PROPERTY
VdW6
SciTegic.value.DoubleValue
-6.980

@<SCITEGIC>MOL_PROPERTY
VdW12
SciTegic.value.DoubleValue
6.962

@<SCITEGIC>MOL_PROPERTY
Bond
SciTegic.value.DoubleValue
0.176

@<SCITEGIC>MOL_PROPERTY
Angle
SciTegic.value.DoubleValue
0.935

@<SCITEGIC>MOL_PROPERTY
Pdih
SciTegic.value.DoubleValue
2.235

@<SCITEGIC>MOL_PROPERTY
Idih
SciTegic.value.DoubleValue
0.000

@<SCITEGIC>MOL_PROPERTY
Tether
SciTegic.value.DoubleValue
0.000

@<TRIPOS>MOLECULE
guest-s12_vm2.mol2 : vm2 ligand conformer 112
          26          25           1
SMALL
USER_CHARGES
 
@<TRIPOS>ATOM
       1    N1      19.618615   19.846389   25.914409 N.4        1 MOL1        -0.4857
       2    H1      19.042510   20.692984   26.045682 H          1 MOL1         0.3650
       3    H2      20.449666   19.995395   26.507337 H          1 MOL1         0.3650
       4    C1      20.027868   19.729567   24.455864 C.3        1 MOL1         0.0209
       5    H3      20.430198   20.699142   24.151535 H          1 MOL1         0.0967
       6    H4      19.124922   19.533968   23.873421 H          1 MOL1         0.0967
       7    C2      21.079411   18.637734   24.172991 C.3        1 MOL1        -0.1378
       8    H5      21.923561   18.773762   24.861838 H          1 MOL1         0.0993
       9    H6      20.655873   17.649303   24.393172 H          1 MOL1         0.0993
      10    C3      21.620833   18.652398   22.721047 C.3        1 MOL1        -0.1338
      11    H7      22.415725   17.896286   22.657904 H          1 MOL1         0.0993
      12    H8      22.108416   19.613594   22.507282 H          1 MOL1         0.0993
      13    C4      20.564577   18.330567   21.631273 C.3        1 MOL1        -0.1338
      14    H9      21.077574   17.844184   20.789929 H          1 MOL1         0.0993
      15    H10     19.842722   17.594569   22.011406 H          1 MOL1         0.0993
      16    C5      19.825790   19.576648   21.084760 C.3        1 MOL1        -0.1313
      17    H11     20.557201   20.295324   20.689361 H          1 MOL1         0.0993
      18    H12     19.282878   20.091456   21.885720 H          1 MOL1         0.0993
      19    C6      18.828908   19.200872   19.967680 C.3        1 MOL1        -0.2328
      20    H13     19.342655   18.723012   19.123338 H          1 MOL1         0.1004
      21    H14     18.317311   20.094699   19.587716 H          1 MOL1         0.1004
      22    H15     18.063352   18.507110   20.338919 H          1 MOL1         0.1004
      23    C7      18.841998   18.615824   26.368977 C.3        1 MOL1        -0.0781
      24    H16     17.959259   18.495105   25.737292 H          1 MOL1         0.0978
      25    H17     19.480723   17.734186   26.286116 H          1 MOL1         0.0978
      26    H18     18.535708   18.750725   27.408720 H          1 MOL1         0.0978
@<TRIPOS>BOND
    1     1     2    1
    2     1     3    1
    3     1     4    1
    4     4     5    1
    5     4     6    1
    6     4     7    1
    7     7     8    1
    8     7     9    1
    9     7    10    1
   10    10    11    1
   11    10    12    1
   12    10    13    1
   13    13    14    1
   14    13    15    1
   15    13    16    1
   16    16    17    1
   17    16    18    1
   18    16    19    1
   19    19    20    1
   20    19    21    1
   21    19    22    1
   22     1    23    1
   23    23    24    1
   24    23    25    1
   25    23    26    1
@<TRIPOS>SUBSTRUCTURE
       1 MOL1            1 RESIDUE      1      MOL     
@<SCITEGIC>MOL_PROPERTY
VM2 Rank
SciTegic.value.IntegerValue
112

@<SCITEGIC>MOL_PROPERTY
Conf_Id
SciTegic.value.IntegerValue
1314

@<SCITEGIC>MOL_PROPERTY
Probability
SciTegic.value.DoubleValue
0.04

@<SCITEGIC>MOL_PROPERTY
Sum Probability
SciTegic.value.DoubleValue
99.12

@<SCITEGIC>MOL_PROPERTY
Delta G
SciTegic.value.DoubleValue
3.122

@<SCITEGIC>MOL_PROPERTY
G
SciTegic.value.DoubleValue
78.588

@<SCITEGIC>MOL_PROPERTY
E
SciTegic.value.DoubleValue
46.171

@<SCITEGIC>MOL_PROPERTY
-TS
SciTegic.value.DoubleValue
32.416

@<SCITEGIC>MOL_PROPERTY
U+W
SciTegic.value.DoubleValue
24.710

@<SCITEGIC>MOL_PROPERTY
U
SciTegic.value.DoubleValue
74.305

@<SCITEGIC>MOL_PROPERTY
W
SciTegic.value.DoubleValue
-49.596

@<SCITEGIC>MOL_PROPERTY
W(PB)
SciTegic.value.DoubleValue
-51.865

@<SCITEGIC>MOL_PROPERTY
W(SA)
SciTegic.value.DoubleValue
2.269

@<SCITEGIC>MOL_PROPERTY
Valence
SciTegic.value.DoubleValue
4.513

@<SCITEGIC>MOL_PROPERTY
Coulomb
SciTegic.value.DoubleValue
69.361

@<SCITEGIC>MOL_PROPERTY
VdW
SciTegic.value.DoubleValue
0.431

@<SCITEGIC>MOL_PROPERTY
VdW6
SciTegic.value.DoubleValue
-7.509

@<SCITEGIC>MOL_PROPERTY
VdW12
SciTegic.value.DoubleValue
7.941

@<SCITEGIC>MOL_PROPERTY
Bond
SciTegic.value.DoubleValue
0.240

@<SCITEGIC>MOL_PROPERTY
Angle
SciTegic.value.DoubleValue
1.206

@<SCITEGIC>MOL_PROPERTY
Pdih
SciTegic.value.DoubleValue
3.067

@<SCITEGIC>MOL_PROPERTY
Idih
SciTegic.value.DoubleValue
0.000

@<SCITEGIC>MOL_PROPERTY
Tether
SciTegic.value.DoubleValue
0.000

@<TRIPOS>MOLECULE
guest-s12_vm2.mol2 : vm2 ligand conformer 113
          26          25           1
SMALL
USER_CHARGES
 
@<TRIPOS>ATOM
       1    N1      20.132571   19.899133   25.932664 N.4        1 MOL1        -0.4857
       2    H1      19.249207   19.871776   26.464953 H          1 MOL1         0.3650
       3    H2      20.513950   20.844171   26.097912 H          1 MOL1         0.3650
       4    C1      19.858602   19.712224   24.449931 C.3        1 MOL1         0.0209
       5    H3      20.820923   19.708472   23.933471 H          1 MOL1         0.0967
       6    H4      19.289898   20.581994   24.111352 H          1 MOL1         0.0967
       7    C2      19.073301   18.431573   24.101939 C.3        1 MOL1        -0.1378
       8    H5      19.672369   17.548249   24.358290 H          1 MOL1         0.0993
       9    H6      18.173013   18.388244   24.729002 H          1 MOL1         0.0993
      10    C3      18.643191   18.346450   22.615582 C.3        1 MOL1        -0.1338
      11    H7      17.986749   19.190111   22.361314 H          1 MOL1         0.0993
      12    H8      18.024837   17.445138   22.502361 H          1 MOL1         0.0993
      13    C4      19.816443   18.253703   21.604772 C.3        1 MOL1        -0.1338
      14    H9      20.644303   17.676917   22.039781 H          1 MOL1         0.0993
      15    H10     19.473104   17.679354   20.733086 H          1 MOL1         0.0993
      16    C5      20.323183   19.627760   21.102399 C.3        1 MOL1        -0.1313
      17    H11     20.692791   20.236307   21.935693 H          1 MOL1         0.0993
      18    H12     19.490578   20.185752   20.651610 H          1 MOL1         0.0993
      19    C6      21.451319   19.470331   20.060586 C.3        1 MOL1        -0.2328
      20    H13     22.313890   18.943807   20.489475 H          1 MOL1         0.1004
      21    H14     21.796076   20.452146   19.710997 H          1 MOL1         0.1004
      22    H15     21.105715   18.904227   19.185780 H          1 MOL1         0.1004
      23    C7      21.109391   18.848826   26.449127 C.3        1 MOL1        -0.0781
      24    H16     20.670587   17.856396   26.328070 H          1 MOL1         0.0978
      25    H17     22.040187   18.914649   25.881578 H          1 MOL1         0.0978
      26    H18     21.308432   19.035591   27.506757 H          1 MOL1         0.0978
@<TRIPOS>BOND
    1     1     2    1
    2     1     3    1
    3     1     4    1
    4     4     5    1
    5     4     6    1
    6     4     7    1
    7     7     8    1
    8     7     9    1
    9     7    10    1
   10    10    11    1
   11    10    12    1
   12    10    13    1
   13    13    14    1
   14    13    15    1
   15    13    16    1
   16    16    17    1
   17    16    18    1
   18    16    19    1
   19    19    20    1
   20    19    21    1
   21    19    22    1
   22     1    23    1
   23    23    24    1
   24    23    25    1
   25    23    26    1
@<TRIPOS>SUBSTRUCTURE
       1 MOL1            1 RESIDUE      1      MOL     
@<SCITEGIC>MOL_PROPERTY
VM2 Rank
SciTegic.value.IntegerValue
113

@<SCITEGIC>MOL_PROPERTY
Conf_Id
SciTegic.value.IntegerValue
1054

@<SCITEGIC>MOL_PROPERTY
Probability
SciTegic.value.DoubleValue
0.04

@<SCITEGIC>MOL_PROPERTY
Sum Probability
SciTegic.value.DoubleValue
99.16

@<SCITEGIC>MOL_PROPERTY
Delta G
SciTegic.value.DoubleValue
3.134

@<SCITEGIC>MOL_PROPERTY
G
SciTegic.value.DoubleValue
78.600

@<SCITEGIC>MOL_PROPERTY
E
SciTegic.value.DoubleValue
46.184

@<SCITEGIC>MOL_PROPERTY
-TS
SciTegic.value.DoubleValue
32.416

@<SCITEGIC>MOL_PROPERTY
U+W
SciTegic.value.DoubleValue
24.722

@<SCITEGIC>MOL_PROPERTY
U
SciTegic.value.DoubleValue
74.305

@<SCITEGIC>MOL_PROPERTY
W
SciTegic.value.DoubleValue
-49.583

@<SCITEGIC>MOL_PROPERTY
W(PB)
SciTegic.value.DoubleValue
-51.861

@<SCITEGIC>MOL_PROPERTY
W(SA)
SciTegic.value.DoubleValue
2.278

@<SCITEGIC>MOL_PROPERTY
Valence
SciTegic.value.DoubleValue
4.513

@<SCITEGIC>MOL_PROPERTY
Coulomb
SciTegic.value.DoubleValue
69.361

@<SCITEGIC>MOL_PROPERTY
VdW
SciTegic.value.DoubleValue
0.431

@<SCITEGIC>MOL_PROPERTY
VdW6
SciTegic.value.DoubleValue
-7.509

@<SCITEGIC>MOL_PROPERTY
VdW12
SciTegic.value.DoubleValue
7.940

@<SCITEGIC>MOL_PROPERTY
Bond
SciTegic.value.DoubleValue
0.240

@<SCITEGIC>MOL_PROPERTY
Angle
SciTegic.value.DoubleValue
1.206

@<SCITEGIC>MOL_PROPERTY
Pdih
SciTegic.value.DoubleValue
3.067

@<SCITEGIC>MOL_PROPERTY
Idih
SciTegic.value.DoubleValue
0.000

@<SCITEGIC>MOL_PROPERTY
Tether
SciTegic.value.DoubleValue
0.000

@<TRIPOS>MOLECULE
guest-s12_vm2.mol2 : vm2 ligand conformer 114
          26          25           1
SMALL
USER_CHARGES
 
@<TRIPOS>ATOM
       1    N1      19.731607   19.665899   25.990920 N.4        1 MOL1        -0.4857
       2    H1      19.447602   18.912349   26.635813 H          1 MOL1         0.3650
       3    H2      19.248401   20.509688   26.337878 H          1 MOL1         0.3650
       4    C1      19.263069   19.354844   24.579735 C.3        1 MOL1         0.0209
       5    H3      19.624667   20.151365   23.927753 H          1 MOL1         0.0967
       6    H4      18.170819   19.394277   24.584553 H          1 MOL1         0.0967
       7    C2      19.709555   17.974961   24.048320 C.3        1 MOL1        -0.1378
       8    H5      20.803812   17.890592   24.055614 H          1 MOL1         0.0993
       9    H6      19.335409   17.207812   24.739071 H          1 MOL1         0.0993
      10    C3      19.167403   17.669149   22.629226 C.3        1 MOL1        -0.1338
      11    H7      18.147333   18.063730   22.522731 H          1 MOL1         0.0993
      12    H8      19.076293   16.579020   22.525205 H          1 MOL1         0.0993
      13    C4      20.059586   18.177028   21.466495 C.3        1 MOL1        -0.1338
      14    H9      21.041679   17.687032   21.518557 H          1 MOL1         0.0993
      15    H10     19.606693   17.850414   20.520103 H          1 MOL1         0.0993
      16    C5      20.254209   19.710511   21.426207 C.3        1 MOL1        -0.1313
      17    H11     20.842742   20.035660   22.293994 H          1 MOL1         0.0993
      18    H12     19.278713   20.212951   21.486572 H          1 MOL1         0.0993
      19    C6      20.982045   20.158733   20.140801 C.3        1 MOL1        -0.2328
      20    H13     21.972888   19.692115   20.065171 H          1 MOL1         0.1004
      21    H14     21.121182   21.247587   20.133755 H          1 MOL1         0.1004
      22    H15     20.407240   19.887604   19.245662 H          1 MOL1         0.1004
      23    C7      21.240527   19.878875   26.035295 C.3        1 MOL1        -0.0781
      24    H16     21.745011   18.960797   25.727722 H          1 MOL1         0.0978
      25    H17     21.507937   20.693610   25.358912 H          1 MOL1         0.0978
      26    H18     21.535018   20.135104   27.055445 H          1 MOL1         0.0978
@<TRIPOS>BOND
    1     1     2    1
    2     1     3    1
    3     1     4    1
    4     4     5    1
    5     4     6    1
    6     4     7    1
    7     7     8    1
    8     7     9    1
    9     7    10    1
   10    10    11    1
   11    10    12    1
   12    10    13    1
   13    13    14    1
   14    13    15    1
   15    13    16    1
   16    16    17    1
   17    16    18    1
   18    16    19    1
   19    19    20    1
   20    19    21    1
   21    19    22    1
   22     1    23    1
   23    23    24    1
   24    23    25    1
   25    23    26    1
@<TRIPOS>SUBSTRUCTURE
       1 MOL1            1 RESIDUE      1      MOL     
@<SCITEGIC>MOL_PROPERTY
VM2 Rank
SciTegic.value.IntegerValue
114

@<SCITEGIC>MOL_PROPERTY
Conf_Id
SciTegic.value.IntegerValue
223

@<SCITEGIC>MOL_PROPERTY
Probability
SciTegic.value.DoubleValue
0.04

@<SCITEGIC>MOL_PROPERTY
Sum Probability
SciTegic.value.DoubleValue
99.19

@<SCITEGIC>MOL_PROPERTY
Delta G
SciTegic.value.DoubleValue
3.138

@<SCITEGIC>MOL_PROPERTY
G
SciTegic.value.DoubleValue
78.604

@<SCITEGIC>MOL_PROPERTY
E
SciTegic.value.DoubleValue
45.956

@<SCITEGIC>MOL_PROPERTY
-TS
SciTegic.value.DoubleValue
32.648

@<SCITEGIC>MOL_PROPERTY
U+W
SciTegic.value.DoubleValue
24.494

@<SCITEGIC>MOL_PROPERTY
U
SciTegic.value.DoubleValue
74.229

@<SCITEGIC>MOL_PROPERTY
W
SciTegic.value.DoubleValue
-49.735

@<SCITEGIC>MOL_PROPERTY
W(PB)
SciTegic.value.DoubleValue
-51.986

@<SCITEGIC>MOL_PROPERTY
W(SA)
SciTegic.value.DoubleValue
2.251

@<SCITEGIC>MOL_PROPERTY
Valence
SciTegic.value.DoubleValue
4.376

@<SCITEGIC>MOL_PROPERTY
Coulomb
SciTegic.value.DoubleValue
69.549

@<SCITEGIC>MOL_PROPERTY
VdW
SciTegic.value.DoubleValue
0.303

@<SCITEGIC>MOL_PROPERTY
VdW6
SciTegic.value.DoubleValue
-7.807

@<SCITEGIC>MOL_PROPERTY
VdW12
SciTegic.value.DoubleValue
8.111

@<SCITEGIC>MOL_PROPERTY
Bond
SciTegic.value.DoubleValue
0.233

@<SCITEGIC>MOL_PROPERTY
Angle
SciTegic.value.DoubleValue
1.219

@<SCITEGIC>MOL_PROPERTY
Pdih
SciTegic.value.DoubleValue
2.925

@<SCITEGIC>MOL_PROPERTY
Idih
SciTegic.value.DoubleValue
0.000

@<SCITEGIC>MOL_PROPERTY
Tether
SciTegic.value.DoubleValue
0.000

@<TRIPOS>MOLECULE
guest-s12_vm2.mol2 : vm2 ligand conformer 115
          26          25           1
SMALL
USER_CHARGES
 
@<TRIPOS>ATOM
       1    N1      20.560329   18.623734   25.314961 N.4        1 MOL1        -0.4857
       2    H1      21.069169   18.562982   24.421526 H          1 MOL1         0.3650
       3    H2      20.303290   17.653147   25.553129 H          1 MOL1         0.3650
       4    C1      19.310493   19.467014   25.149011 C.3        1 MOL1         0.0209
       5    H3      19.612024   20.496854   24.942008 H          1 MOL1         0.0967
       6    H4      18.789061   19.452576   26.109468 H          1 MOL1         0.0967
       7    C2      18.350027   18.971713   24.047262 C.3        1 MOL1        -0.1378
       8    H5      18.267557   17.877320   24.083855 H          1 MOL1         0.0993
       9    H6      17.348038   19.356733   24.278832 H          1 MOL1         0.0993
      10    C3      18.719419   19.438472   22.615742 C.3        1 MOL1        -0.1338
      11    H7      18.720589   20.536752   22.578958 H          1 MOL1         0.0993
      12    H8      17.922799   19.110883   21.933386 H          1 MOL1         0.0993
      13    C4      20.075988   18.904586   22.096974 C.3        1 MOL1        -0.1338
      14    H9      20.895920   19.345453   22.677631 H          1 MOL1         0.0993
      15    H10     20.122460   17.815355   22.234302 H          1 MOL1         0.0993
      16    C5      20.291609   19.241818   20.604743 C.3        1 MOL1        -0.1313
      17    H11     20.239003   20.329930   20.458721 H          1 MOL1         0.0993
      18    H12     19.483463   18.802208   20.003366 H          1 MOL1         0.0993
      19    C6      21.651266   18.721380   20.091455 C.3        1 MOL1        -0.2328
      20    H13     22.482947   19.171050   20.649378 H          1 MOL1         0.1004
      21    H14     21.785342   18.968922   19.030426 H          1 MOL1         0.1004
      22    H15     21.720897   17.630561   20.193789 H          1 MOL1         0.1004
      23    C7      21.448870   19.221282   26.396853 C.3        1 MOL1        -0.0781
      24    H16     20.898967   19.245069   27.340235 H          1 MOL1         0.0978
      25    H17     22.343619   18.604515   26.507012 H          1 MOL1         0.0978
      26    H18     21.733072   20.235700   26.108560 H          1 MOL1         0.0978
@<TRIPOS>BOND
    1     1     2    1
    2     1     3    1
    3     1     4    1
    4     4     5    1
    5     4     6    1
    6     4     7    1
    7     7     8    1
    8     7     9    1
    9     7    10    1
   10    10    11    1
   11    10    12    1
   12    10    13    1
   13    13    14    1
   14    13    15    1
   15    13    16    1
   16    16    17    1
   17    16    18    1
   18    16    19    1
   19    19    20    1
   20    19    21    1
   21    19    22    1
   22     1    23    1
   23    23    24    1
   24    23    25    1
   25    23    26    1
@<TRIPOS>SUBSTRUCTURE
       1 MOL1            1 RESIDUE      1      MOL     
@<SCITEGIC>MOL_PROPERTY
VM2 Rank
SciTegic.value.IntegerValue
115

@<SCITEGIC>MOL_PROPERTY
Conf_Id
SciTegic.value.IntegerValue
534

@<SCITEGIC>MOL_PROPERTY
Probability
SciTegic.value.DoubleValue
0.04

@<SCITEGIC>MOL_PROPERTY
Sum Probability
SciTegic.value.DoubleValue
99.23

@<SCITEGIC>MOL_PROPERTY
Delta G
SciTegic.value.DoubleValue
3.147

@<SCITEGIC>MOL_PROPERTY
G
SciTegic.value.DoubleValue
78.613

@<SCITEGIC>MOL_PROPERTY
E
SciTegic.value.DoubleValue
46.267

@<SCITEGIC>MOL_PROPERTY
-TS
SciTegic.value.DoubleValue
32.346

@<SCITEGIC>MOL_PROPERTY
U+W
SciTegic.value.DoubleValue
24.805

@<SCITEGIC>MOL_PROPERTY
U
SciTegic.value.DoubleValue
73.983

@<SCITEGIC>MOL_PROPERTY
W
SciTegic.value.DoubleValue
-49.177

@<SCITEGIC>MOL_PROPERTY
W(PB)
SciTegic.value.DoubleValue
-51.451

@<SCITEGIC>MOL_PROPERTY
W(SA)
SciTegic.value.DoubleValue
2.274

@<SCITEGIC>MOL_PROPERTY
Valence
SciTegic.value.DoubleValue
3.347

@<SCITEGIC>MOL_PROPERTY
Coulomb
SciTegic.value.DoubleValue
70.654

@<SCITEGIC>MOL_PROPERTY
VdW
SciTegic.value.DoubleValue
-0.018

@<SCITEGIC>MOL_PROPERTY
VdW6
SciTegic.value.DoubleValue
-6.980

@<SCITEGIC>MOL_PROPERTY
VdW12
SciTegic.value.DoubleValue
6.962

@<SCITEGIC>MOL_PROPERTY
Bond
SciTegic.value.DoubleValue
0.176

@<SCITEGIC>MOL_PROPERTY
Angle
SciTegic.value.DoubleValue
0.935

@<SCITEGIC>MOL_PROPERTY
Pdih
SciTegic.value.DoubleValue
2.235

@<SCITEGIC>MOL_PROPERTY
Idih
SciTegic.value.DoubleValue
0.000

@<SCITEGIC>MOL_PROPERTY
Tether
SciTegic.value.DoubleValue
0.000

@<TRIPOS>MOLECULE
guest-s12_vm2.mol2 : vm2 ligand conformer 116
          26          25           1
SMALL
USER_CHARGES
 
@<TRIPOS>ATOM
       1    N1      20.241081   18.916794   25.922675 N.4        1 MOL1        -0.4857
       2    H1      20.825556   18.481810   26.653847 H          1 MOL1         0.3650
       3    H2      19.297626   18.969930   26.335557 H          1 MOL1         0.3650
       4    C1      20.229827   18.019958   24.693946 C.3        1 MOL1         0.0209
       5    H3      20.334642   16.995368   25.059845 H          1 MOL1         0.0967
       6    H4      21.111292   18.246697   24.089590 H          1 MOL1         0.0967
       7    C2      18.946902   18.083913   23.832911 C.3        1 MOL1        -0.1378
       8    H5      18.965563   17.246532   23.123971 H          1 MOL1         0.0993
       9    H6      18.075333   17.904046   24.475848 H          1 MOL1         0.0993
      10    C3      18.738027   19.405667   23.049181 C.3        1 MOL1        -0.1338
      11    H7      18.534368   20.219479   23.756660 H          1 MOL1         0.0993
      12    H8      17.827320   19.313519   22.441519 H          1 MOL1         0.0993
      13    C4      19.917103   19.812060   22.127114 C.3        1 MOL1        -0.1338
      14    H9      19.673310   20.775070   21.657632 H          1 MOL1         0.0993
      15    H10     20.821481   19.987080   22.723907 H          1 MOL1         0.0993
      16    C5      20.220666   18.775874   21.019324 C.3        1 MOL1        -0.1313
      17    H11     19.307683   18.570041   20.443285 H          1 MOL1         0.0993
      18    H12     20.536181   17.824145   21.467223 H          1 MOL1         0.0993
      19    C6      21.327790   19.271016   20.064414 C.3        1 MOL1        -0.2328
      20    H13     21.532165   18.523375   19.287073 H          1 MOL1         0.1004
      21    H14     22.263605   19.456534   20.607564 H          1 MOL1         0.1004
      22    H15     21.031696   20.202864   19.565262 H          1 MOL1         0.1004
      23    C7      20.786604   20.304719   25.607435 C.3        1 MOL1        -0.0781
      24    H16     20.812502   20.894208   26.526603 H          1 MOL1         0.0978
      25    H17     21.797012   20.208586   25.204275 H          1 MOL1         0.0978
      26    H18     20.142896   20.795559   24.876927 H          1 MOL1         0.0978
@<TRIPOS>BOND
    1     1     2    1
    2     1     3    1
    3     1     4    1
    4     4     5    1
    5     4     6    1
    6     4     7    1
    7     7     8    1
    8     7     9    1
    9     7    10    1
   10    10    11    1
   11    10    12    1
   12    10    13    1
   13    13    14    1
   14    13    15    1
   15    13    16    1
   16    16    17    1
   17    16    18    1
   18    16    19    1
   19    19    20    1
   20    19    21    1
   21    19    22    1
   22     1    23    1
   23    23    24    1
   24    23    25    1
   25    23    26    1
@<TRIPOS>SUBSTRUCTURE
       1 MOL1            1 RESIDUE      1      MOL     
@<SCITEGIC>MOL_PROPERTY
VM2 Rank
SciTegic.value.IntegerValue
116

@<SCITEGIC>MOL_PROPERTY
Conf_Id
SciTegic.value.IntegerValue
817

@<SCITEGIC>MOL_PROPERTY
Probability
SciTegic.value.DoubleValue
0.04

@<SCITEGIC>MOL_PROPERTY
Sum Probability
SciTegic.value.DoubleValue
99.26

@<SCITEGIC>MOL_PROPERTY
Delta G
SciTegic.value.DoubleValue
3.157

@<SCITEGIC>MOL_PROPERTY
G
SciTegic.value.DoubleValue
78.623

@<SCITEGIC>MOL_PROPERTY
E
SciTegic.value.DoubleValue
45.528

@<SCITEGIC>MOL_PROPERTY
-TS
SciTegic.value.DoubleValue
33.095

@<SCITEGIC>MOL_PROPERTY
U+W
SciTegic.value.DoubleValue
24.066

@<SCITEGIC>MOL_PROPERTY
U
SciTegic.value.DoubleValue
74.107

@<SCITEGIC>MOL_PROPERTY
W
SciTegic.value.DoubleValue
-50.041

@<SCITEGIC>MOL_PROPERTY
W(PB)
SciTegic.value.DoubleValue
-52.240

@<SCITEGIC>MOL_PROPERTY
W(SA)
SciTegic.value.DoubleValue
2.200

@<SCITEGIC>MOL_PROPERTY
Valence
SciTegic.value.DoubleValue
4.499

@<SCITEGIC>MOL_PROPERTY
Coulomb
SciTegic.value.DoubleValue
69.634

@<SCITEGIC>MOL_PROPERTY
VdW
SciTegic.value.DoubleValue
-0.027

@<SCITEGIC>MOL_PROPERTY
VdW6
SciTegic.value.DoubleValue
-8.973

@<SCITEGIC>MOL_PROPERTY
VdW12
SciTegic.value.DoubleValue
8.947

@<SCITEGIC>MOL_PROPERTY
Bond
SciTegic.value.DoubleValue
0.259

@<SCITEGIC>MOL_PROPERTY
Angle
SciTegic.value.DoubleValue
1.561

@<SCITEGIC>MOL_PROPERTY
Pdih
SciTegic.value.DoubleValue
2.679

@<SCITEGIC>MOL_PROPERTY
Idih
SciTegic.value.DoubleValue
0.000

@<SCITEGIC>MOL_PROPERTY
Tether
SciTegic.value.DoubleValue
0.000

@<TRIPOS>MOLECULE
guest-s12_vm2.mol2 : vm2 ligand conformer 117
          26          25           1
SMALL
USER_CHARGES
 
@<TRIPOS>ATOM
       1    N1      19.681973   19.188154   25.937376 N.4        1 MOL1        -0.4857
       2    H1      19.941089   19.264044   26.933643 H          1 MOL1         0.3650
       3    H2      18.776201   18.695322   25.935811 H          1 MOL1         0.3650
       4    C1      20.732040   18.364534   25.208054 C.3        1 MOL1         0.0209
       5    H3      21.160133   17.682045   25.946714 H          1 MOL1         0.0967
       6    H4      21.528896   19.035007   24.878165 H          1 MOL1         0.0967
       7    C2      20.208728   17.515060   24.026150 C.3        1 MOL1        -0.1378
       8    H5      21.025621   16.869189   23.677965 H          1 MOL1         0.0993
       9    H6      19.426415   16.838282   24.394181 H          1 MOL1         0.0993
      10    C3      19.660239   18.317718   22.820307 C.3        1 MOL1        -0.1338
      11    H7      18.782239   18.899890   23.127363 H          1 MOL1         0.0993
      12    H8      19.298785   17.600495   22.071991 H          1 MOL1         0.0993
      13    C4      20.719079   19.245860   22.171975 C.3        1 MOL1        -0.1338
      14    H9      21.130186   19.924915   22.929859 H          1 MOL1         0.0993
      15    H10     21.563621   18.644602   21.808208 H          1 MOL1         0.0993
      16    C5      20.157698   20.103193   21.011803 C.3        1 MOL1        -0.1313
      17    H11     20.937950   20.803440   20.682072 H          1 MOL1         0.0993
      18    H12     19.324875   20.721153   21.375505 H          1 MOL1         0.0993
      19    C6      19.693537   19.268274   19.796522 C.3        1 MOL1        -0.2328
      20    H13     19.396045   19.926250   18.969798 H          1 MOL1         0.1004
      21    H14     18.828867   18.640409   20.044407 H          1 MOL1         0.1004
      22    H15     20.499350   18.617268   19.433434 H          1 MOL1         0.1004
      23    C7      19.554706   20.587206   25.344812 C.3        1 MOL1        -0.0781
      24    H16     20.521698   21.090900   25.407563 H          1 MOL1         0.0978
      25    H17     19.242709   20.518332   24.302061 H          1 MOL1         0.0978
      26    H18     18.810572   21.148840   25.913903 H          1 MOL1         0.0978
@<TRIPOS>BOND
    1     1     2    1
    2     1     3    1
    3     1     4    1
    4     4     5    1
    5     4     6    1
    6     4     7    1
    7     7     8    1
    8     7     9    1
    9     7    10    1
   10    10    11    1
   11    10    12    1
   12    10    13    1
   13    13    14    1
   14    13    15    1
   15    13    16    1
   16    16    17    1
   17    16    18    1
   18    16    19    1
   19    19    20    1
   20    19    21    1
   21    19    22    1
   22     1    23    1
   23    23    24    1
   24    23    25    1
   25    23    26    1
@<TRIPOS>SUBSTRUCTURE
       1 MOL1            1 RESIDUE      1      MOL     
@<SCITEGIC>MOL_PROPERTY
VM2 Rank
SciTegic.value.IntegerValue
117

@<SCITEGIC>MOL_PROPERTY
Conf_Id
SciTegic.value.IntegerValue
799

@<SCITEGIC>MOL_PROPERTY
Probability
SciTegic.value.DoubleValue
0.03

@<SCITEGIC>MOL_PROPERTY
Sum Probability
SciTegic.value.DoubleValue
99.29

@<SCITEGIC>MOL_PROPERTY
Delta G
SciTegic.value.DoubleValue
3.337

@<SCITEGIC>MOL_PROPERTY
G
SciTegic.value.DoubleValue
78.803

@<SCITEGIC>MOL_PROPERTY
E
SciTegic.value.DoubleValue
45.757

@<SCITEGIC>MOL_PROPERTY
-TS
SciTegic.value.DoubleValue
33.046

@<SCITEGIC>MOL_PROPERTY
U+W
SciTegic.value.DoubleValue
24.295

@<SCITEGIC>MOL_PROPERTY
U
SciTegic.value.DoubleValue
74.192

@<SCITEGIC>MOL_PROPERTY
W
SciTegic.value.DoubleValue
-49.897

@<SCITEGIC>MOL_PROPERTY
W(PB)
SciTegic.value.DoubleValue
-52.091

@<SCITEGIC>MOL_PROPERTY
W(SA)
SciTegic.value.DoubleValue
2.194

@<SCITEGIC>MOL_PROPERTY
Valence
SciTegic.value.DoubleValue
4.602

@<SCITEGIC>MOL_PROPERTY
Coulomb
SciTegic.value.DoubleValue
69.486

@<SCITEGIC>MOL_PROPERTY
VdW
SciTegic.value.DoubleValue
0.104

@<SCITEGIC>MOL_PROPERTY
VdW6
SciTegic.value.DoubleValue
-8.803

@<SCITEGIC>MOL_PROPERTY
VdW12
SciTegic.value.DoubleValue
8.907

@<SCITEGIC>MOL_PROPERTY
Bond
SciTegic.value.DoubleValue
0.257

@<SCITEGIC>MOL_PROPERTY
Angle
SciTegic.value.DoubleValue
1.462

@<SCITEGIC>MOL_PROPERTY
Pdih
SciTegic.value.DoubleValue
2.883

@<SCITEGIC>MOL_PROPERTY
Idih
SciTegic.value.DoubleValue
0.000

@<SCITEGIC>MOL_PROPERTY
Tether
SciTegic.value.DoubleValue
0.000

@<TRIPOS>MOLECULE
guest-s12_vm2.mol2 : vm2 ligand conformer 118
          26          25           1
SMALL
USER_CHARGES
 
@<TRIPOS>ATOM
       1    N1      20.202565   19.241449   25.956086 N.4        1 MOL1        -0.4857
       2    H1      21.187305   18.942651   26.021780 H          1 MOL1         0.3650
       3    H2      19.864011   19.255917   26.931083 H          1 MOL1         0.3650
       4    C1      19.395393   18.227269   25.160593 C.3        1 MOL1         0.0209
       5    H3      18.504230   18.724487   24.770792 H          1 MOL1         0.0967
       6    H4      19.063911   17.466686   25.872144 H          1 MOL1         0.0967
       7    C2      20.161911   17.510388   24.024420 C.3        1 MOL1        -0.1378
       8    H5      21.037581   17.003923   24.451251 H          1 MOL1         0.0993
       9    H6      19.519680   16.714629   23.624418 H          1 MOL1         0.0993
      10    C3      20.619149   18.416421   22.854291 C.3        1 MOL1        -0.1338
      11    H7      21.170142   17.792937   22.138254 H          1 MOL1         0.0993
      12    H8      21.337017   19.162419   23.217942 H          1 MOL1         0.0993
      13    C4      19.442031   19.115055   22.126813 C.3        1 MOL1        -0.1338
      14    H9      18.764450   18.357587   21.709422 H          1 MOL1         0.0993
      15    H10     18.849880   19.691344   22.849145 H          1 MOL1         0.0993
      16    C5      19.897534   20.076467   21.002369 C.3        1 MOL1        -0.1313
      17    H11     20.560491   20.847773   21.418692 H          1 MOL1         0.0993
      18    H12     19.016510   20.606412   20.614019 H          1 MOL1         0.0993
      19    C6      20.604718   19.361441   19.828455 C.3        1 MOL1        -0.2328
      20    H13     21.559234   18.920031   20.140498 H          1 MOL1         0.1004
      21    H14     20.819609   20.071823   19.019700 H          1 MOL1         0.1004
      22    H15     19.974780   18.563257   19.414863 H          1 MOL1         0.1004
      23    C7      20.084699   20.641511   25.363973 C.3        1 MOL1        -0.0781
      24    H16     19.033649   20.938041   25.354868 H          1 MOL1         0.0978
      25    H17     20.657434   21.338276   25.980030 H          1 MOL1         0.0978
      26    H18     20.476809   20.644995   24.346302 H          1 MOL1         0.0978
@<TRIPOS>BOND
    1     1     2    1
    2     1     3    1
    3     1     4    1
    4     4     5    1
    5     4     6    1
    6     4     7    1
    7     7     8    1
    8     7     9    1
    9     7    10    1
   10    10    11    1
   11    10    12    1
   12    10    13    1
   13    13    14    1
   14    13    15    1
   15    13    16    1
   16    16    17    1
   17    16    18    1
   18    16    19    1
   19    19    20    1
   20    19    21    1
   21    19    22    1
   22     1    23    1
   23    23    24    1
   24    23    25    1
   25    23    26    1
@<TRIPOS>SUBSTRUCTURE
       1 MOL1            1 RESIDUE      1      MOL     
@<SCITEGIC>MOL_PROPERTY
VM2 Rank
SciTegic.value.IntegerValue
118

@<SCITEGIC>MOL_PROPERTY
Conf_Id
SciTegic.value.IntegerValue
1083

@<SCITEGIC>MOL_PROPERTY
Probability
SciTegic.value.DoubleValue
0.03

@<SCITEGIC>MOL_PROPERTY
Sum Probability
SciTegic.value.DoubleValue
99.32

@<SCITEGIC>MOL_PROPERTY
Delta G
SciTegic.value.DoubleValue
3.343

@<SCITEGIC>MOL_PROPERTY
G
SciTegic.value.DoubleValue
78.809

@<SCITEGIC>MOL_PROPERTY
E
SciTegic.value.DoubleValue
45.763

@<SCITEGIC>MOL_PROPERTY
-TS
SciTegic.value.DoubleValue
33.046

@<SCITEGIC>MOL_PROPERTY
U+W
SciTegic.value.DoubleValue
24.302

@<SCITEGIC>MOL_PROPERTY
U
SciTegic.value.DoubleValue
74.191

@<SCITEGIC>MOL_PROPERTY
W
SciTegic.value.DoubleValue
-49.890

@<SCITEGIC>MOL_PROPERTY
W(PB)
SciTegic.value.DoubleValue
-52.099

@<SCITEGIC>MOL_PROPERTY
W(SA)
SciTegic.value.DoubleValue
2.209

@<SCITEGIC>MOL_PROPERTY
Valence
SciTegic.value.DoubleValue
4.602

@<SCITEGIC>MOL_PROPERTY
Coulomb
SciTegic.value.DoubleValue
69.486

@<SCITEGIC>MOL_PROPERTY
VdW
SciTegic.value.DoubleValue
0.104

@<SCITEGIC>MOL_PROPERTY
VdW6
SciTegic.value.DoubleValue
-8.802

@<SCITEGIC>MOL_PROPERTY
VdW12
SciTegic.value.DoubleValue
8.906

@<SCITEGIC>MOL_PROPERTY
Bond
SciTegic.value.DoubleValue
0.257

@<SCITEGIC>MOL_PROPERTY
Angle
SciTegic.value.DoubleValue
1.462

@<SCITEGIC>MOL_PROPERTY
Pdih
SciTegic.value.DoubleValue
2.883

@<SCITEGIC>MOL_PROPERTY
Idih
SciTegic.value.DoubleValue
0.000

@<SCITEGIC>MOL_PROPERTY
Tether
SciTegic.value.DoubleValue
0.000

@<TRIPOS>MOLECULE
guest-s12_vm2.mol2 : vm2 ligand conformer 119
          26          25           1
SMALL
USER_CHARGES
 
@<TRIPOS>ATOM
       1    N1      19.700064   18.440717   26.018745 N.4        1 MOL1        -0.4857
       2    H1      20.524788   17.844030   26.187942 H          1 MOL1         0.3650
       3    H2      18.958865   17.799718   25.695521 H          1 MOL1         0.3650
       4    C1      20.008286   19.467129   24.947120 C.3        1 MOL1         0.0209
       5    H3      20.800731   20.118277   25.324643 H          1 MOL1         0.0967
       6    H4      19.110470   20.071055   24.793239 H          1 MOL1         0.0967
       7    C2      20.445646   18.840226   23.610907 C.3        1 MOL1        -0.1378
       8    H5      21.337855   18.221626   23.775659 H          1 MOL1         0.0993
       9    H6      19.656733   18.169536   23.252610 H          1 MOL1         0.0993
      10    C3      20.758602   19.927476   22.554767 C.3        1 MOL1        -0.1338
      11    H7      21.568240   20.559467   22.945745 H          1 MOL1         0.0993
      12    H8      19.893645   20.591831   22.420764 H          1 MOL1         0.0993
      13    C4      21.204261   19.350598   21.185434 C.3        1 MOL1        -0.1338
      14    H9      21.956601   20.027826   20.757805 H          1 MOL1         0.0993
      15    H10     21.717875   18.389389   21.324875 H          1 MOL1         0.0993
      16    C5      20.066995   19.200785   20.142494 C.3        1 MOL1        -0.1313
      17    H11     20.505996   18.854752   19.196238 H          1 MOL1         0.0993
      18    H12     19.628675   20.186166   19.931060 H          1 MOL1         0.0993
      19    C6      18.947424   18.220481   20.555830 C.3        1 MOL1        -0.2328
      20    H13     18.365082   18.612688   21.398528 H          1 MOL1         0.1004
      21    H14     19.359991   17.243423   20.838632 H          1 MOL1         0.1004
      22    H15     18.250310   18.061812   19.722915 H          1 MOL1         0.1004
      23    C7      19.276723   19.142588   27.301702 C.3        1 MOL1        -0.0781
      24    H16     20.088603   19.789069   27.642107 H          1 MOL1         0.0978
      25    H17     18.384247   19.741046   27.106017 H          1 MOL1         0.0978
      26    H18     19.057802   18.392453   28.064928 H          1 MOL1         0.0978
@<TRIPOS>BOND
    1     1     2    1
    2     1     3    1
    3     1     4    1
    4     4     5    1
    5     4     6    1
    6     4     7    1
    7     7     8    1
    8     7     9    1
    9     7    10    1
   10    10    11    1
   11    10    12    1
   12    10    13    1
   13    13    14    1
   14    13    15    1
   15    13    16    1
   16    16    17    1
   17    16    18    1
   18    16    19    1
   19    19    20    1
   20    19    21    1
   21    19    22    1
   22     1    23    1
   23    23    24    1
   24    23    25    1
   25    23    26    1
@<TRIPOS>SUBSTRUCTURE
       1 MOL1            1 RESIDUE      1      MOL     
@<SCITEGIC>MOL_PROPERTY
VM2 Rank
SciTegic.value.IntegerValue
119

@<SCITEGIC>MOL_PROPERTY
Conf_Id
SciTegic.value.IntegerValue
409

@<SCITEGIC>MOL_PROPERTY
Probability
SciTegic.value.DoubleValue
0.03

@<SCITEGIC>MOL_PROPERTY
Sum Probability
SciTegic.value.DoubleValue
99.34

@<SCITEGIC>MOL_PROPERTY
Delta G
SciTegic.value.DoubleValue
3.369

@<SCITEGIC>MOL_PROPERTY
G
SciTegic.value.DoubleValue
78.835

@<SCITEGIC>MOL_PROPERTY
E
SciTegic.value.DoubleValue
46.332

@<SCITEGIC>MOL_PROPERTY
-TS
SciTegic.value.DoubleValue
32.503

@<SCITEGIC>MOL_PROPERTY
U+W
SciTegic.value.DoubleValue
24.870

@<SCITEGIC>MOL_PROPERTY
U
SciTegic.value.DoubleValue
74.070

@<SCITEGIC>MOL_PROPERTY
W
SciTegic.value.DoubleValue
-49.200

@<SCITEGIC>MOL_PROPERTY
W(PB)
SciTegic.value.DoubleValue
-51.475

@<SCITEGIC>MOL_PROPERTY
W(SA)
SciTegic.value.DoubleValue
2.275

@<SCITEGIC>MOL_PROPERTY
Valence
SciTegic.value.DoubleValue
4.690

@<SCITEGIC>MOL_PROPERTY
Coulomb
SciTegic.value.DoubleValue
69.115

@<SCITEGIC>MOL_PROPERTY
VdW
SciTegic.value.DoubleValue
0.266

@<SCITEGIC>MOL_PROPERTY
VdW6
SciTegic.value.DoubleValue
-6.809

@<SCITEGIC>MOL_PROPERTY
VdW12
SciTegic.value.DoubleValue
7.075

@<SCITEGIC>MOL_PROPERTY
Bond
SciTegic.value.DoubleValue
0.212

@<SCITEGIC>MOL_PROPERTY
Angle
SciTegic.value.DoubleValue
1.133

@<SCITEGIC>MOL_PROPERTY
Pdih
SciTegic.value.DoubleValue
3.345

@<SCITEGIC>MOL_PROPERTY
Idih
SciTegic.value.DoubleValue
0.000

@<SCITEGIC>MOL_PROPERTY
Tether
SciTegic.value.DoubleValue
0.000

@<TRIPOS>MOLECULE
guest-s12_vm2.mol2 : vm2 ligand conformer 120
          26          25           1
SMALL
USER_CHARGES
 
@<TRIPOS>ATOM
       1    N1      20.936139   18.747559   25.765429 N.4        1 MOL1        -0.4857
       2    H1      21.907745   19.026360   25.975508 H          1 MOL1         0.3650
       3    H2      20.983460   17.733204   25.583317 H          1 MOL1         0.3650
       4    C1      20.452686   19.482309   24.526214 C.3        1 MOL1         0.0209
       5    H3      21.227051   19.371746   23.765635 H          1 MOL1         0.0967
       6    H4      20.375830   20.543840   24.774347 H          1 MOL1         0.0967
       7    C2      19.103329   18.977914   23.968629 C.3        1 MOL1        -0.1378
       8    H5      19.138958   17.892432   23.807531 H          1 MOL1         0.0993
       9    H6      18.327864   19.153333   24.725347 H          1 MOL1         0.0993
      10    C3      18.681295   19.696401   22.661992 C.3        1 MOL1        -0.1338
      11    H7      18.968931   20.756119   22.705256 H          1 MOL1         0.0993
      12    H8      17.583813   19.689046   22.607156 H          1 MOL1         0.0993
      13    C4      19.218165   19.050432   21.358014 C.3        1 MOL1        -0.1338
      14    H9      18.835370   18.023919   21.274011 H          1 MOL1         0.0993
      15    H10     18.798309   19.602016   20.505409 H          1 MOL1         0.0993
      16    C5      20.759350   19.034422   21.233786 C.3        1 MOL1        -0.1313
      17    H11     21.188622   18.363184   21.988940 H          1 MOL1         0.0993
      18    H12     21.160245   20.039651   21.424837 H          1 MOL1         0.0993
      19    C6      21.213183   18.559758   19.836749 C.3        1 MOL1        -0.2328
      20    H13     20.837549   19.227656   19.050617 H          1 MOL1         0.1004
      21    H14     20.848722   17.545705   19.626774 H          1 MOL1         0.1004
      22    H15     22.308747   18.544475   19.769504 H          1 MOL1         0.1004
      23    C7      20.043852   19.041204   26.966189 C.3        1 MOL1        -0.0781
      24    H16     20.027128   20.118361   27.145850 H          1 MOL1         0.0978
      25    H17     19.032759   18.683456   26.761869 H          1 MOL1         0.0978
      26    H18     20.444500   18.527452   27.842895 H          1 MOL1         0.0978
@<TRIPOS>BOND
    1     1     2    1
    2     1     3    1
    3     1     4    1
    4     4     5    1
    5     4     6    1
    6     4     7    1
    7     7     8    1
    8     7     9    1
    9     7    10    1
   10    10    11    1
   11    10    12    1
   12    10    13    1
   13    13    14    1
   14    13    15    1
   15    13    16    1
   16    16    17    1
   17    16    18    1
   18    16    19    1
   19    19    20    1
   20    19    21    1
   21    19    22    1
   22     1    23    1
   23    23    24    1
   24    23    25    1
   25    23    26    1
@<TRIPOS>SUBSTRUCTURE
       1 MOL1            1 RESIDUE      1      MOL     
@<SCITEGIC>MOL_PROPERTY
VM2 Rank
SciTegic.value.IntegerValue
120

@<SCITEGIC>MOL_PROPERTY
Conf_Id
SciTegic.value.IntegerValue
1308

@<SCITEGIC>MOL_PROPERTY
Probability
SciTegic.value.DoubleValue
0.02

@<SCITEGIC>MOL_PROPERTY
Sum Probability
SciTegic.value.DoubleValue
99.37

@<SCITEGIC>MOL_PROPERTY
Delta G
SciTegic.value.DoubleValue
3.383

@<SCITEGIC>MOL_PROPERTY
G
SciTegic.value.DoubleValue
78.849

@<SCITEGIC>MOL_PROPERTY
E
SciTegic.value.DoubleValue
46.165

@<SCITEGIC>MOL_PROPERTY
-TS
SciTegic.value.DoubleValue
32.684

@<SCITEGIC>MOL_PROPERTY
U+W
SciTegic.value.DoubleValue
24.703

@<SCITEGIC>MOL_PROPERTY
U
SciTegic.value.DoubleValue
74.467

@<SCITEGIC>MOL_PROPERTY
W
SciTegic.value.DoubleValue
-49.764

@<SCITEGIC>MOL_PROPERTY
W(PB)
SciTegic.value.DoubleValue
-52.029

@<SCITEGIC>MOL_PROPERTY
W(SA)
SciTegic.value.DoubleValue
2.265

@<SCITEGIC>MOL_PROPERTY
Valence
SciTegic.value.DoubleValue
4.430

@<SCITEGIC>MOL_PROPERTY
Coulomb
SciTegic.value.DoubleValue
69.610

@<SCITEGIC>MOL_PROPERTY
VdW
SciTegic.value.DoubleValue
0.428

@<SCITEGIC>MOL_PROPERTY
VdW6
SciTegic.value.DoubleValue
-7.654

@<SCITEGIC>MOL_PROPERTY
VdW12
SciTegic.value.DoubleValue
8.082

@<SCITEGIC>MOL_PROPERTY
Bond
SciTegic.value.DoubleValue
0.236

@<SCITEGIC>MOL_PROPERTY
Angle
SciTegic.value.DoubleValue
1.210

@<SCITEGIC>MOL_PROPERTY
Pdih
SciTegic.value.DoubleValue
2.983

@<SCITEGIC>MOL_PROPERTY
Idih
SciTegic.value.DoubleValue
0.000

@<SCITEGIC>MOL_PROPERTY
Tether
SciTegic.value.DoubleValue
0.000

@<TRIPOS>MOLECULE
guest-s12_vm2.mol2 : vm2 ligand conformer 121
          26          25           1
SMALL
USER_CHARGES
 
@<TRIPOS>ATOM
       1    N1      20.014738   18.623415   26.232541 N.4        1 MOL1        -0.4857
       2    H1      20.585994   18.379615   27.057143 H          1 MOL1         0.3650
       3    H2      19.177811   18.024949   26.307239 H          1 MOL1         0.3650
       4    C1      20.791246   18.282065   24.967939 C.3        1 MOL1         0.0209
       5    H3      21.143021   17.255033   25.095386 H          1 MOL1         0.0967
       6    H4      21.669989   18.929460   24.913726 H          1 MOL1         0.0967
       7    C2      19.992229   18.356627   23.647669 C.3        1 MOL1        -0.1378
       8    H5      20.379012   17.574317   22.982782 H          1 MOL1         0.0993
       9    H6      18.937639   18.113791   23.832812 H          1 MOL1         0.0993
      10    C3      20.120505   19.726676   22.934621 C.3        1 MOL1        -0.1338
      11    H7      21.174337   19.919227   22.693707 H          1 MOL1         0.0993
      12    H8      19.821098   20.531172   23.616417 H          1 MOL1         0.0993
      13    C4      19.256230   19.839988   21.651835 C.3        1 MOL1        -0.1338
      14    H9      18.196149   19.752340   21.927100 H          1 MOL1         0.0993
      15    H10     19.375115   20.849861   21.235599 H          1 MOL1         0.0993
      16    C5      19.571585   18.802643   20.543725 C.3        1 MOL1        -0.1313
      17    H11     18.898564   18.983994   19.694065 H          1 MOL1         0.0993
      18    H12     19.341675   17.788136   20.895821 H          1 MOL1         0.0993
      19    C6      21.032304   18.862978   20.042059 C.3        1 MOL1        -0.2328
      20    H13     21.740250   18.572992   20.828367 H          1 MOL1         0.1004
      21    H14     21.291144   19.873865   19.701410 H          1 MOL1         0.1004
      22    H15     21.177591   18.176766   19.197751 H          1 MOL1         0.1004
      23    C7      19.629163   20.095609   26.296611 C.3        1 MOL1        -0.0781
      24    H16     20.527470   20.707805   26.191654 H          1 MOL1         0.0978
      25    H17     18.927641   20.318632   25.490698 H          1 MOL1         0.0978
      26    H18     19.154552   20.298160   27.259306 H          1 MOL1         0.0978
@<TRIPOS>BOND
    1     1     2    1
    2     1     3    1
    3     1     4    1
    4     4     5    1
    5     4     6    1
    6     4     7    1
    7     7     8    1
    8     7     9    1
    9     7    10    1
   10    10    11    1
   11    10    12    1
   12    10    13    1
   13    13    14    1
   14    13    15    1
   15    13    16    1
   16    16    17    1
   17    16    18    1
   18    16    19    1
   19    19    20    1
   20    19    21    1
   21    19    22    1
   22     1    23    1
   23    23    24    1
   24    23    25    1
   25    23    26    1
@<TRIPOS>SUBSTRUCTURE
       1 MOL1            1 RESIDUE      1      MOL     
@<SCITEGIC>MOL_PROPERTY
VM2 Rank
SciTegic.value.IntegerValue
121

@<SCITEGIC>MOL_PROPERTY
Conf_Id
SciTegic.value.IntegerValue
463

@<SCITEGIC>MOL_PROPERTY
Probability
SciTegic.value.DoubleValue
0.02

@<SCITEGIC>MOL_PROPERTY
Sum Probability
SciTegic.value.DoubleValue
99.39

@<SCITEGIC>MOL_PROPERTY
Delta G
SciTegic.value.DoubleValue
3.424

@<SCITEGIC>MOL_PROPERTY
G
SciTegic.value.DoubleValue
78.890

@<SCITEGIC>MOL_PROPERTY
E
SciTegic.value.DoubleValue
46.083

@<SCITEGIC>MOL_PROPERTY
-TS
SciTegic.value.DoubleValue
32.806

@<SCITEGIC>MOL_PROPERTY
U+W
SciTegic.value.DoubleValue
24.621

@<SCITEGIC>MOL_PROPERTY
U
SciTegic.value.DoubleValue
74.314

@<SCITEGIC>MOL_PROPERTY
W
SciTegic.value.DoubleValue
-49.693

@<SCITEGIC>MOL_PROPERTY
W(PB)
SciTegic.value.DoubleValue
-51.902

@<SCITEGIC>MOL_PROPERTY
W(SA)
SciTegic.value.DoubleValue
2.209

@<SCITEGIC>MOL_PROPERTY
Valence
SciTegic.value.DoubleValue
4.913

@<SCITEGIC>MOL_PROPERTY
Coulomb
SciTegic.value.DoubleValue
68.873

@<SCITEGIC>MOL_PROPERTY
VdW
SciTegic.value.DoubleValue
0.528

@<SCITEGIC>MOL_PROPERTY
VdW6
SciTegic.value.DoubleValue
-8.387

@<SCITEGIC>MOL_PROPERTY
VdW12
SciTegic.value.DoubleValue
8.915

@<SCITEGIC>MOL_PROPERTY
Bond
SciTegic.value.DoubleValue
0.278

@<SCITEGIC>MOL_PROPERTY
Angle
SciTegic.value.DoubleValue
1.572

@<SCITEGIC>MOL_PROPERTY
Pdih
SciTegic.value.DoubleValue
3.063

@<SCITEGIC>MOL_PROPERTY
Idih
SciTegic.value.DoubleValue
0.000

@<SCITEGIC>MOL_PROPERTY
Tether
SciTegic.value.DoubleValue
0.000

@<TRIPOS>MOLECULE
guest-s12_vm2.mol2 : vm2 ligand conformer 122
          26          25           1
SMALL
USER_CHARGES
 
@<TRIPOS>ATOM
       1    N1      20.330418   18.505042   26.041059 N.4        1 MOL1        -0.4857
       2    H1      21.206503   18.029119   25.775156 H          1 MOL1         0.3650
       3    H2      19.633265   17.753023   26.156278 H          1 MOL1         0.3650
       4    C1      19.897289   19.455817   24.943183 C.3        1 MOL1         0.0209
       5    H3      20.663313   20.229560   24.848270 H          1 MOL1         0.0967
       6    H4      18.965307   19.930965   25.259616 H          1 MOL1         0.0967
       7    C2      19.690088   18.763148   23.584125 C.3        1 MOL1        -0.1378
       8    H5      20.621202   18.267981   23.286767 H          1 MOL1         0.0993
       9    H6      18.931720   17.976110   23.690397 H          1 MOL1         0.0993
      10    C3      19.238967   19.772422   22.500915 C.3        1 MOL1        -0.1338
      11    H7      19.959321   20.598561   22.423070 H          1 MOL1         0.0993
      12    H8      18.293119   20.225257   22.829704 H          1 MOL1         0.0993
      13    C4      19.015872   19.127294   21.107891 C.3        1 MOL1        -0.1338
      14    H9      18.698221   18.081271   21.217890 H          1 MOL1         0.0993
      15    H10     18.174234   19.641880   20.623775 H          1 MOL1         0.0993
      16    C5      20.230185   19.217409   20.148274 C.3        1 MOL1        -0.1313
      17    H11     20.474419   20.272434   19.960988 H          1 MOL1         0.0993
      18    H12     19.937405   18.796664   19.176103 H          1 MOL1         0.0993
      19    C6      21.492740   18.480211   20.646047 C.3        1 MOL1        -0.2328
      20    H13     21.923520   18.975867   21.524592 H          1 MOL1         0.1004
      21    H14     22.264110   18.471321   19.865150 H          1 MOL1         0.1004
      22    H15     21.266983   17.438040   20.906322 H          1 MOL1         0.1004
      23    C7      20.512442   19.268657   27.345506 C.3        1 MOL1        -0.0781
      24    H16     19.565028   19.735671   27.623477 H          1 MOL1         0.0978
      25    H17     20.824037   18.572633   28.127555 H          1 MOL1         0.0978
      26    H18     21.277380   20.036185   27.208651 H          1 MOL1         0.0978
@<TRIPOS>BOND
    1     1     2    1
    2     1     3    1
    3     1     4    1
    4     4     5    1
    5     4     6    1
    6     4     7    1
    7     7     8    1
    8     7     9    1
    9     7    10    1
   10    10    11    1
   11    10    12    1
   12    10    13    1
   13    13    14    1
   14    13    15    1
   15    13    16    1
   16    16    17    1
   17    16    18    1
   18    16    19    1
   19    19    20    1
   20    19    21    1
   21    19    22    1
   22     1    23    1
   23    23    24    1
   24    23    25    1
   25    23    26    1
@<TRIPOS>SUBSTRUCTURE
       1 MOL1            1 RESIDUE      1      MOL     
@<SCITEGIC>MOL_PROPERTY
VM2 Rank
SciTegic.value.IntegerValue
122

@<SCITEGIC>MOL_PROPERTY
Conf_Id
SciTegic.value.IntegerValue
84

@<SCITEGIC>MOL_PROPERTY
Probability
SciTegic.value.DoubleValue
0.02

@<SCITEGIC>MOL_PROPERTY
Sum Probability
SciTegic.value.DoubleValue
99.41

@<SCITEGIC>MOL_PROPERTY
Delta G
SciTegic.value.DoubleValue
3.438

@<SCITEGIC>MOL_PROPERTY
G
SciTegic.value.DoubleValue
78.904

@<SCITEGIC>MOL_PROPERTY
E
SciTegic.value.DoubleValue
46.402

@<SCITEGIC>MOL_PROPERTY
-TS
SciTegic.value.DoubleValue
32.503

@<SCITEGIC>MOL_PROPERTY
U+W
SciTegic.value.DoubleValue
24.940

@<SCITEGIC>MOL_PROPERTY
U
SciTegic.value.DoubleValue
74.070

@<SCITEGIC>MOL_PROPERTY
W
SciTegic.value.DoubleValue
-49.131

@<SCITEGIC>MOL_PROPERTY
W(PB)
SciTegic.value.DoubleValue
-51.425

@<SCITEGIC>MOL_PROPERTY
W(SA)
SciTegic.value.DoubleValue
2.294

@<SCITEGIC>MOL_PROPERTY
Valence
SciTegic.value.DoubleValue
4.689

@<SCITEGIC>MOL_PROPERTY
Coulomb
SciTegic.value.DoubleValue
69.115

@<SCITEGIC>MOL_PROPERTY
VdW
SciTegic.value.DoubleValue
0.266

@<SCITEGIC>MOL_PROPERTY
VdW6
SciTegic.value.DoubleValue
-6.809

@<SCITEGIC>MOL_PROPERTY
VdW12
SciTegic.value.DoubleValue
7.075

@<SCITEGIC>MOL_PROPERTY
Bond
SciTegic.value.DoubleValue
0.212

@<SCITEGIC>MOL_PROPERTY
Angle
SciTegic.value.DoubleValue
1.133

@<SCITEGIC>MOL_PROPERTY
Pdih
SciTegic.value.DoubleValue
3.345

@<SCITEGIC>MOL_PROPERTY
Idih
SciTegic.value.DoubleValue
0.000

@<SCITEGIC>MOL_PROPERTY
Tether
SciTegic.value.DoubleValue
0.000

@<TRIPOS>MOLECULE
guest-s12_vm2.mol2 : vm2 ligand conformer 123
          26          25           1
SMALL
USER_CHARGES
 
@<TRIPOS>ATOM
       1    N1      19.971500   18.618923   26.230967 N.4        1 MOL1        -0.4857
       2    H1      20.904864   18.201600   26.368302 H          1 MOL1         0.3650
       3    H2      19.405098   18.258660   27.015277 H          1 MOL1         0.3650
       4    C1      19.370534   18.136706   24.917575 C.3        1 MOL1         0.0209
       5    H3      18.385014   18.593380   24.797377 H          1 MOL1         0.0967
       6    H4      19.225697   17.058863   25.027380 H          1 MOL1         0.0967
       7    C2      20.228365   18.380850   23.655982 C.3        1 MOL1        -0.1378
       8    H5      21.294675   18.355078   23.916228 H          1 MOL1         0.0993
       9    H6      20.055371   17.541256   22.971262 H          1 MOL1         0.0993
      10    C3      19.875775   19.701692   22.925933 C.3        1 MOL1        -0.1338
      11    H7      19.957683   20.545205   23.621263 H          1 MOL1         0.0993
      12    H8      18.824296   19.678734   22.610425 H          1 MOL1         0.0993
      13    C4      20.786908   19.996778   21.706053 C.3        1 MOL1        -0.1338
      14    H9      20.495505   20.964620   21.275246 H          1 MOL1         0.0993
      15    H10     21.820843   20.123582   22.055514 H          1 MOL1         0.0993
      16    C5      20.766485   18.925000   20.586089 C.3        1 MOL1        -0.1313
      17    H11     21.171832   17.975581   20.960724 H          1 MOL1         0.0993
      18    H12     21.446637   19.244926   19.784335 H          1 MOL1         0.0993
      19    C6      19.362584   18.691874   19.982996 C.3        1 MOL1        -0.2328
      20    H13     18.928902   19.631804   19.617779 H          1 MOL1         0.1004
      21    H14     18.674753   18.258952   20.719900 H          1 MOL1         0.1004
      22    H15     19.418722   17.996487   19.135568 H          1 MOL1         0.1004
      23    C7      20.045849   20.138176   26.311404 C.3        1 MOL1        -0.0781
      24    H16     20.742313   20.504313   25.554932 H          1 MOL1         0.0978
      25    H17     19.051845   20.556737   26.139592 H          1 MOL1         0.0978
      26    H18     20.401221   20.425590   27.303457 H          1 MOL1         0.0978
@<TRIPOS>BOND
    1     1     2    1
    2     1     3    1
    3     1     4    1
    4     4     5    1
    5     4     6    1
    6     4     7    1
    7     7     8    1
    8     7     9    1
    9     7    10    1
   10    10    11    1
   11    10    12    1
   12    10    13    1
   13    13    14    1
   14    13    15    1
   15    13    16    1
   16    16    17    1
   17    16    18    1
   18    16    19    1
   19    19    20    1
   20    19    21    1
   21    19    22    1
   22     1    23    1
   23    23    24    1
   24    23    25    1
   25    23    26    1
@<TRIPOS>SUBSTRUCTURE
       1 MOL1            1 RESIDUE      1      MOL     
@<SCITEGIC>MOL_PROPERTY
VM2 Rank
SciTegic.value.IntegerValue
123

@<SCITEGIC>MOL_PROPERTY
Conf_Id
SciTegic.value.IntegerValue
233

@<SCITEGIC>MOL_PROPERTY
Probability
SciTegic.value.DoubleValue
0.02

@<SCITEGIC>MOL_PROPERTY
Sum Probability
SciTegic.value.DoubleValue
99.43

@<SCITEGIC>MOL_PROPERTY
Delta G
SciTegic.value.DoubleValue
3.443

@<SCITEGIC>MOL_PROPERTY
G
SciTegic.value.DoubleValue
78.909

@<SCITEGIC>MOL_PROPERTY
E
SciTegic.value.DoubleValue
46.102

@<SCITEGIC>MOL_PROPERTY
-TS
SciTegic.value.DoubleValue
32.806

@<SCITEGIC>MOL_PROPERTY
U+W
SciTegic.value.DoubleValue
24.640

@<SCITEGIC>MOL_PROPERTY
U
SciTegic.value.DoubleValue
74.315

@<SCITEGIC>MOL_PROPERTY
W
SciTegic.value.DoubleValue
-49.674

@<SCITEGIC>MOL_PROPERTY
W(PB)
SciTegic.value.DoubleValue
-51.874

@<SCITEGIC>MOL_PROPERTY
W(SA)
SciTegic.value.DoubleValue
2.200

@<SCITEGIC>MOL_PROPERTY
Valence
SciTegic.value.DoubleValue
4.913

@<SCITEGIC>MOL_PROPERTY
Coulomb
SciTegic.value.DoubleValue
68.873

@<SCITEGIC>MOL_PROPERTY
VdW
SciTegic.value.DoubleValue
0.528

@<SCITEGIC>MOL_PROPERTY
VdW6
SciTegic.value.DoubleValue
-8.387

@<SCITEGIC>MOL_PROPERTY
VdW12
SciTegic.value.DoubleValue
8.915

@<SCITEGIC>MOL_PROPERTY
Bond
SciTegic.value.DoubleValue
0.278

@<SCITEGIC>MOL_PROPERTY
Angle
SciTegic.value.DoubleValue
1.572

@<SCITEGIC>MOL_PROPERTY
Pdih
SciTegic.value.DoubleValue
3.063

@<SCITEGIC>MOL_PROPERTY
Idih
SciTegic.value.DoubleValue
0.000

@<SCITEGIC>MOL_PROPERTY
Tether
SciTegic.value.DoubleValue
0.000

@<TRIPOS>MOLECULE
guest-s12_vm2.mol2 : vm2 ligand conformer 124
          26          25           1
SMALL
USER_CHARGES
 
@<TRIPOS>ATOM
       1    N1      19.631612   18.377299   25.929307 N.4        1 MOL1        -0.4857
       2    H1      20.260295   17.561276   25.868808 H          1 MOL1         0.3650
       3    H2      18.704534   18.032399   25.635524 H          1 MOL1         0.3650
       4    C1      20.103613   19.471596   24.993016 C.3        1 MOL1         0.0209
       5    H3      21.088150   19.802212   25.333394 H          1 MOL1         0.0967
       6    H4      19.409101   20.310892   25.080943 H          1 MOL1         0.0967
       7    C2      20.187963   19.021046   23.523387 C.3        1 MOL1        -0.1378
       8    H5      20.875250   18.168615   23.441257 H          1 MOL1         0.0993
       9    H6      19.196966   18.679030   23.200272 H          1 MOL1         0.0993
      10    C3      20.669363   20.170159   22.608799 C.3        1 MOL1        -0.1338
      11    H7      21.594725   20.592501   23.024833 H          1 MOL1         0.0993
      12    H8      19.929752   20.982750   22.623924 H          1 MOL1         0.0993
      13    C4      20.944389   19.750476   21.141331 C.3        1 MOL1        -0.1338
      14    H9      21.321676   20.635555   20.610472 H          1 MOL1         0.0993
      15    H10     21.759917   19.015079   21.104798 H          1 MOL1         0.0993
      16    C5      19.707487   19.218392   20.372084 C.3        1 MOL1        -0.1313
      17    H11     19.784726   19.537089   19.323045 H          1 MOL1         0.0993
      18    H12     18.788508   19.679418   20.760108 H          1 MOL1         0.0993
      19    C6      19.586316   17.676457   20.392587 C.3        1 MOL1        -0.2328
      20    H13     19.478018   17.283389   21.409253 H          1 MOL1         0.1004
      21    H14     20.471002   17.207999   19.942131 H          1 MOL1         0.1004
      22    H15     18.709704   17.352831   19.816631 H          1 MOL1         0.1004
      23    C7      19.577257   18.904574   27.356489 C.3        1 MOL1        -0.0781
      24    H16     19.236132   18.106993   28.020296 H          1 MOL1         0.0978
      25    H17     20.574956   19.232605   27.656411 H          1 MOL1         0.0978
      26    H18     18.881728   19.745458   27.402463 H          1 MOL1         0.0978
@<TRIPOS>BOND
    1     1     2    1
    2     1     3    1
    3     1     4    1
    4     4     5    1
    5     4     6    1
    6     4     7    1
    7     7     8    1
    8     7     9    1
    9     7    10    1
   10    10    11    1
   11    10    12    1
   12    10    13    1
   13    13    14    1
   14    13    15    1
   15    13    16    1
   16    16    17    1
   17    16    18    1
   18    16    19    1
   19    19    20    1
   20    19    21    1
   21    19    22    1
   22     1    23    1
   23    23    24    1
   24    23    25    1
   25    23    26    1
@<TRIPOS>SUBSTRUCTURE
       1 MOL1            1 RESIDUE      1      MOL     
@<SCITEGIC>MOL_PROPERTY
VM2 Rank
SciTegic.value.IntegerValue
124

@<SCITEGIC>MOL_PROPERTY
Conf_Id
SciTegic.value.IntegerValue
1099

@<SCITEGIC>MOL_PROPERTY
Probability
SciTegic.value.DoubleValue
0.02

@<SCITEGIC>MOL_PROPERTY
Sum Probability
SciTegic.value.DoubleValue
99.45

@<SCITEGIC>MOL_PROPERTY
Delta G
SciTegic.value.DoubleValue
3.455

@<SCITEGIC>MOL_PROPERTY
G
SciTegic.value.DoubleValue
78.921

@<SCITEGIC>MOL_PROPERTY
E
SciTegic.value.DoubleValue
46.428

@<SCITEGIC>MOL_PROPERTY
-TS
SciTegic.value.DoubleValue
32.493

@<SCITEGIC>MOL_PROPERTY
U+W
SciTegic.value.DoubleValue
24.966

@<SCITEGIC>MOL_PROPERTY
U
SciTegic.value.DoubleValue
74.134

@<SCITEGIC>MOL_PROPERTY
W
SciTegic.value.DoubleValue
-49.168

@<SCITEGIC>MOL_PROPERTY
W(PB)
SciTegic.value.DoubleValue
-51.472

@<SCITEGIC>MOL_PROPERTY
W(SA)
SciTegic.value.DoubleValue
2.304

@<SCITEGIC>MOL_PROPERTY
Valence
SciTegic.value.DoubleValue
4.712

@<SCITEGIC>MOL_PROPERTY
Coulomb
SciTegic.value.DoubleValue
69.140

@<SCITEGIC>MOL_PROPERTY
VdW
SciTegic.value.DoubleValue
0.281

@<SCITEGIC>MOL_PROPERTY
VdW6
SciTegic.value.DoubleValue
-6.801

@<SCITEGIC>MOL_PROPERTY
VdW12
SciTegic.value.DoubleValue
7.082

@<SCITEGIC>MOL_PROPERTY
Bond
SciTegic.value.DoubleValue
0.212

@<SCITEGIC>MOL_PROPERTY
Angle
SciTegic.value.DoubleValue
1.172

@<SCITEGIC>MOL_PROPERTY
Pdih
SciTegic.value.DoubleValue
3.329

@<SCITEGIC>MOL_PROPERTY
Idih
SciTegic.value.DoubleValue
0.000

@<SCITEGIC>MOL_PROPERTY
Tether
SciTegic.value.DoubleValue
0.000

@<TRIPOS>MOLECULE
guest-s12_vm2.mol2 : vm2 ligand conformer 125
          26          25           1
SMALL
USER_CHARGES
 
@<TRIPOS>ATOM
       1    N1      19.589752   18.366095   25.741834 N.4        1 MOL1        -0.4857
       2    H1      19.699668   17.850764   26.629512 H          1 MOL1         0.3650
       3    H2      19.126765   17.701332   25.103902 H          1 MOL1         0.3650
       4    C1      20.962655   18.742876   25.207850 C.3        1 MOL1         0.0209
       5    H3      21.662029   17.991047   25.582465 H          1 MOL1         0.0967
       6    H4      21.246587   19.705422   25.640499 H          1 MOL1         0.0967
       7    C2      21.088844   18.786106   23.668609 C.3        1 MOL1        -0.1378
       8    H5      22.144618   18.956532   23.419925 H          1 MOL1         0.0993
       9    H6      20.828726   17.801132   23.260707 H          1 MOL1         0.0993
      10    C3      20.228159   19.884920   22.998008 C.3        1 MOL1        -0.1338
      11    H7      20.392582   20.837640   23.520009 H          1 MOL1         0.0993
      12    H8      19.162995   19.650008   23.114517 H          1 MOL1         0.0993
      13    C4      20.549487   20.087512   21.494630 C.3        1 MOL1        -0.1338
      14    H9      19.922475   20.901869   21.106195 H          1 MOL1         0.0993
      15    H10     21.587210   20.434350   21.394359 H          1 MOL1         0.0993
      16    C5      20.353431   18.834385   20.603308 C.3        1 MOL1        -0.1313
      17    H11     21.053038   18.042384   20.902479 H          1 MOL1         0.0993
      18    H12     20.620199   19.095528   19.569675 H          1 MOL1         0.0993
      19    C6      18.907889   18.287343   20.620448 C.3        1 MOL1        -0.2328
      20    H13     18.800719   17.461814   19.905002 H          1 MOL1         0.1004
      21    H14     18.187344   19.067584   20.343023 H          1 MOL1         0.1004
      22    H15     18.634527   17.902937   21.610855 H          1 MOL1         0.1004
      23    C7      18.727783   19.600763   25.982313 C.3        1 MOL1        -0.0781
      24    H16     19.232298   20.254700   26.696897 H          1 MOL1         0.0978
      25    H17     18.574428   20.132152   25.042385 H          1 MOL1         0.0978
      26    H18     17.763179   19.288274   26.388446 H          1 MOL1         0.0978
@<TRIPOS>BOND
    1     1     2    1
    2     1     3    1
    3     1     4    1
    4     4     5    1
    5     4     6    1
    6     4     7    1
    7     7     8    1
    8     7     9    1
    9     7    10    1
   10    10    11    1
   11    10    12    1
   12    10    13    1
   13    13    14    1
   14    13    15    1
   15    13    16    1
   16    16    17    1
   17    16    18    1
   18    16    19    1
   19    19    20    1
   20    19    21    1
   21    19    22    1
   22     1    23    1
   23    23    24    1
   24    23    25    1
   25    23    26    1
@<TRIPOS>SUBSTRUCTURE
       1 MOL1            1 RESIDUE      1      MOL     
@<SCITEGIC>MOL_PROPERTY
VM2 Rank
SciTegic.value.IntegerValue
125

@<SCITEGIC>MOL_PROPERTY
Conf_Id
SciTegic.value.IntegerValue
859

@<SCITEGIC>MOL_PROPERTY
Probability
SciTegic.value.DoubleValue
0.02

@<SCITEGIC>MOL_PROPERTY
Sum Probability
SciTegic.value.DoubleValue
99.48

@<SCITEGIC>MOL_PROPERTY
Delta G
SciTegic.value.DoubleValue
3.463

@<SCITEGIC>MOL_PROPERTY
G
SciTegic.value.DoubleValue
78.929

@<SCITEGIC>MOL_PROPERTY
E
SciTegic.value.DoubleValue
45.990

@<SCITEGIC>MOL_PROPERTY
-TS
SciTegic.value.DoubleValue
32.939

@<SCITEGIC>MOL_PROPERTY
U+W
SciTegic.value.DoubleValue
24.529

@<SCITEGIC>MOL_PROPERTY
U
SciTegic.value.DoubleValue
74.342

@<SCITEGIC>MOL_PROPERTY
W
SciTegic.value.DoubleValue
-49.814

@<SCITEGIC>MOL_PROPERTY
W(PB)
SciTegic.value.DoubleValue
-52.009

@<SCITEGIC>MOL_PROPERTY
W(SA)
SciTegic.value.DoubleValue
2.196

@<SCITEGIC>MOL_PROPERTY
Valence
SciTegic.value.DoubleValue
4.643

@<SCITEGIC>MOL_PROPERTY
Coulomb
SciTegic.value.DoubleValue
69.388

@<SCITEGIC>MOL_PROPERTY
VdW
SciTegic.value.DoubleValue
0.311

@<SCITEGIC>MOL_PROPERTY
VdW6
SciTegic.value.DoubleValue
-8.574

@<SCITEGIC>MOL_PROPERTY
VdW12
SciTegic.value.DoubleValue
8.885

@<SCITEGIC>MOL_PROPERTY
Bond
SciTegic.value.DoubleValue
0.266

@<SCITEGIC>MOL_PROPERTY
Angle
SciTegic.value.DoubleValue
1.427

@<SCITEGIC>MOL_PROPERTY
Pdih
SciTegic.value.DoubleValue
2.951

@<SCITEGIC>MOL_PROPERTY
Idih
SciTegic.value.DoubleValue
0.000

@<SCITEGIC>MOL_PROPERTY
Tether
SciTegic.value.DoubleValue
0.000

@<TRIPOS>MOLECULE
guest-s12_vm2.mol2 : vm2 ligand conformer 126
          26          25           1
SMALL
USER_CHARGES
 
@<TRIPOS>ATOM
       1    N1      19.959810   18.812313   26.109862 N.4        1 MOL1        -0.4857
       2    H1      20.347776   18.483164   27.008055 H          1 MOL1         0.3650
       3    H2      19.117059   18.237911   25.957332 H          1 MOL1         0.3650
       4    C1      20.973399   18.567099   25.003812 C.3        1 MOL1         0.0209
       5    H3      21.608985   17.742555   25.336776 H          1 MOL1         0.0967
       6    H4      21.602946   19.455794   24.913205 H          1 MOL1         0.0967
       7    C2      20.379322   18.186927   23.629101 C.3        1 MOL1        -0.1378
       8    H5      21.218330   17.950010   22.963668 H          1 MOL1         0.0993
       9    H6      19.791681   17.264891   23.728581 H          1 MOL1         0.0993
      10    C3      19.507402   19.297337   22.991782 C.3        1 MOL1        -0.1338
      11    H7      20.076759   20.234695   22.938904 H          1 MOL1         0.0993
      12    H8      18.647540   19.497461   23.643585 H          1 MOL1         0.0993
      13    C4      18.957770   18.929475   21.588639 C.3        1 MOL1        -0.1338
      14    H9      18.311300   18.045582   21.678218 H          1 MOL1         0.0993
      15    H10     18.305425   19.743622   21.243894 H          1 MOL1         0.0993
      16    C5      20.029088   18.656945   20.501431 C.3        1 MOL1        -0.1313
      17    H11     19.516461   18.426504   19.557035 H          1 MOL1         0.0993
      18    H12     20.607667   17.758263   20.753141 H          1 MOL1         0.0993
      19    C6      20.987700   19.846838   20.268757 C.3        1 MOL1        -0.2328
      20    H13     20.430158   20.763200   20.035610 H          1 MOL1         0.1004
      21    H14     21.660470   19.639666   19.426553 H          1 MOL1         0.1004
      22    H15     21.612200   20.038446   21.150200 H          1 MOL1         0.1004
      23    C7      19.613508   20.293065   26.223616 C.3        1 MOL1        -0.0781
      24    H16     19.179195   20.642938   25.286212 H          1 MOL1         0.0978
      25    H17     18.895248   20.430002   27.035039 H          1 MOL1         0.0978
      26    H18     20.523576   20.856746   26.440073 H          1 MOL1         0.0978
@<TRIPOS>BOND
    1     1     2    1
    2     1     3    1
    3     1     4    1
    4     4     5    1
    5     4     6    1
    6     4     7    1
    7     7     8    1
    8     7     9    1
    9     7    10    1
   10    10    11    1
   11    10    12    1
   12    10    13    1
   13    13    14    1
   14    13    15    1
   15    13    16    1
   16    16    17    1
   17    16    18    1
   18    16    19    1
   19    19    20    1
   20    19    21    1
   21    19    22    1
   22     1    23    1
   23    23    24    1
   24    23    25    1
   25    23    26    1
@<TRIPOS>SUBSTRUCTURE
       1 MOL1            1 RESIDUE      1      MOL     
@<SCITEGIC>MOL_PROPERTY
VM2 Rank
SciTegic.value.IntegerValue
126

@<SCITEGIC>MOL_PROPERTY
Conf_Id
SciTegic.value.IntegerValue
752

@<SCITEGIC>MOL_PROPERTY
Probability
SciTegic.value.DoubleValue
0.02

@<SCITEGIC>MOL_PROPERTY
Sum Probability
SciTegic.value.DoubleValue
99.50

@<SCITEGIC>MOL_PROPERTY
Delta G
SciTegic.value.DoubleValue
3.478

@<SCITEGIC>MOL_PROPERTY
G
SciTegic.value.DoubleValue
78.944

@<SCITEGIC>MOL_PROPERTY
E
SciTegic.value.DoubleValue
46.055

@<SCITEGIC>MOL_PROPERTY
-TS
SciTegic.value.DoubleValue
32.889

@<SCITEGIC>MOL_PROPERTY
U+W
SciTegic.value.DoubleValue
24.594

@<SCITEGIC>MOL_PROPERTY
U
SciTegic.value.DoubleValue
74.262

@<SCITEGIC>MOL_PROPERTY
W
SciTegic.value.DoubleValue
-49.668

@<SCITEGIC>MOL_PROPERTY
W(PB)
SciTegic.value.DoubleValue
-51.875

@<SCITEGIC>MOL_PROPERTY
W(SA)
SciTegic.value.DoubleValue
2.207

@<SCITEGIC>MOL_PROPERTY
Valence
SciTegic.value.DoubleValue
4.837

@<SCITEGIC>MOL_PROPERTY
Coulomb
SciTegic.value.DoubleValue
68.998

@<SCITEGIC>MOL_PROPERTY
VdW
SciTegic.value.DoubleValue
0.426

@<SCITEGIC>MOL_PROPERTY
VdW6
SciTegic.value.DoubleValue
-8.427

@<SCITEGIC>MOL_PROPERTY
VdW12
SciTegic.value.DoubleValue
8.853

@<SCITEGIC>MOL_PROPERTY
Bond
SciTegic.value.DoubleValue
0.274

@<SCITEGIC>MOL_PROPERTY
Angle
SciTegic.value.DoubleValue
1.562

@<SCITEGIC>MOL_PROPERTY
Pdih
SciTegic.value.DoubleValue
3.001

@<SCITEGIC>MOL_PROPERTY
Idih
SciTegic.value.DoubleValue
0.000

@<SCITEGIC>MOL_PROPERTY
Tether
SciTegic.value.DoubleValue
0.000

@<TRIPOS>MOLECULE
guest-s12_vm2.mol2 : vm2 ligand conformer 127
          26          25           1
SMALL
USER_CHARGES
 
@<TRIPOS>ATOM
       1    N1      20.359804   19.384610   25.579046 N.4        1 MOL1        -0.4857
       2    H1      21.236571   19.545635   25.061384 H          1 MOL1         0.3650
       3    H2      20.577663   18.649922   26.270004 H          1 MOL1         0.3650
       4    C1      19.275590   18.906107   24.633055 C.3        1 MOL1         0.0209
       5    H3      19.068302   19.712672   23.928961 H          1 MOL1         0.0967
       6    H4      18.374262   18.738430   25.228100 H          1 MOL1         0.0967
       7    C2      19.631828   17.608323   23.876232 C.3        1 MOL1        -0.1378
       8    H5      19.844526   16.828626   24.619692 H          1 MOL1         0.0993
       9    H6      18.752817   17.258935   23.318625 H          1 MOL1         0.0993
      10    C3      20.844895   17.729595   22.914822 C.3        1 MOL1        -0.1338
      11    H7      21.270183   16.725099   22.782022 H          1 MOL1         0.0993
      12    H8      21.644667   18.326226   23.372022 H          1 MOL1         0.0993
      13    C4      20.514265   18.281165   21.503346 C.3        1 MOL1        -0.1338
      14    H9      21.430282   18.235738   20.898090 H          1 MOL1         0.0993
      15    H10     19.791451   17.617007   21.009678 H          1 MOL1         0.0993
      16    C5      19.975360   19.730315   21.484618 C.3        1 MOL1        -0.1313
      17    H11     20.621595   20.378871   22.092373 H          1 MOL1         0.0993
      18    H12     18.971828   19.761333   21.927618 H          1 MOL1         0.0993
      19    C6      19.895018   20.289506   20.047998 C.3        1 MOL1        -0.2328
      20    H13     20.886465   20.315194   19.577304 H          1 MOL1         0.1004
      21    H14     19.498518   21.313119   20.052123 H          1 MOL1         0.1004
      22    H15     19.235007   19.675177   19.421726 H          1 MOL1         0.1004
      23    C7      19.911241   20.660379   26.277883 C.3        1 MOL1        -0.0781
      24    H16     19.717787   21.431305   25.528775 H          1 MOL1         0.0978
      25    H17     18.999766   20.457804   26.844536 H          1 MOL1         0.0978
      26    H18     20.700272   20.994069   26.955518 H          1 MOL1         0.0978
@<TRIPOS>BOND
    1     1     2    1
    2     1     3    1
    3     1     4    1
    4     4     5    1
    5     4     6    1
    6     4     7    1
    7     7     8    1
    8     7     9    1
    9     7    10    1
   10    10    11    1
   11    10    12    1
   12    10    13    1
   13    13    14    1
   14    13    15    1
   15    13    16    1
   16    16    17    1
   17    16    18    1
   18    16    19    1
   19    19    20    1
   20    19    21    1
   21    19    22    1
   22     1    23    1
   23    23    24    1
   24    23    25    1
   25    23    26    1
@<TRIPOS>SUBSTRUCTURE
       1 MOL1            1 RESIDUE      1      MOL     
@<SCITEGIC>MOL_PROPERTY
VM2 Rank
SciTegic.value.IntegerValue
127

@<SCITEGIC>MOL_PROPERTY
Conf_Id
SciTegic.value.IntegerValue
1240

@<SCITEGIC>MOL_PROPERTY
Probability
SciTegic.value.DoubleValue
0.02

@<SCITEGIC>MOL_PROPERTY
Sum Probability
SciTegic.value.DoubleValue
99.52

@<SCITEGIC>MOL_PROPERTY
Delta G
SciTegic.value.DoubleValue
3.544

@<SCITEGIC>MOL_PROPERTY
G
SciTegic.value.DoubleValue
79.010

@<SCITEGIC>MOL_PROPERTY
E
SciTegic.value.DoubleValue
46.520

@<SCITEGIC>MOL_PROPERTY
-TS
SciTegic.value.DoubleValue
32.490

@<SCITEGIC>MOL_PROPERTY
U+W
SciTegic.value.DoubleValue
25.058

@<SCITEGIC>MOL_PROPERTY
U
SciTegic.value.DoubleValue
74.584

@<SCITEGIC>MOL_PROPERTY
W
SciTegic.value.DoubleValue
-49.527

@<SCITEGIC>MOL_PROPERTY
W(PB)
SciTegic.value.DoubleValue
-51.787

@<SCITEGIC>MOL_PROPERTY
W(SA)
SciTegic.value.DoubleValue
2.260

@<SCITEGIC>MOL_PROPERTY
Valence
SciTegic.value.DoubleValue
4.289

@<SCITEGIC>MOL_PROPERTY
Coulomb
SciTegic.value.DoubleValue
70.231

@<SCITEGIC>MOL_PROPERTY
VdW
SciTegic.value.DoubleValue
0.064

@<SCITEGIC>MOL_PROPERTY
VdW6
SciTegic.value.DoubleValue
-7.674

@<SCITEGIC>MOL_PROPERTY
VdW12
SciTegic.value.DoubleValue
7.738

@<SCITEGIC>MOL_PROPERTY
Bond
SciTegic.value.DoubleValue
0.226

@<SCITEGIC>MOL_PROPERTY
Angle
SciTegic.value.DoubleValue
1.378

@<SCITEGIC>MOL_PROPERTY
Pdih
SciTegic.value.DoubleValue
2.686

@<SCITEGIC>MOL_PROPERTY
Idih
SciTegic.value.DoubleValue
0.000

@<SCITEGIC>MOL_PROPERTY
Tether
SciTegic.value.DoubleValue
0.000

@<TRIPOS>MOLECULE
guest-s12_vm2.mol2 : vm2 ligand conformer 128
          26          25           1
SMALL
USER_CHARGES
 
@<TRIPOS>ATOM
       1    N1      20.778934   18.647081   25.395563 N.4        1 MOL1        -0.4857
       2    H1      21.340949   18.804933   24.547634 H          1 MOL1         0.3650
       3    H2      21.250300   17.875082   25.893293 H          1 MOL1         0.3650
       4    C1      19.368567   18.221106   25.019035 C.3        1 MOL1         0.0209
       5    H3      18.806371   18.128125   25.951634 H          1 MOL1         0.0967
       6    H4      19.428698   17.228363   24.565893 H          1 MOL1         0.0967
       7    C2      18.607848   19.168044   24.061725 C.3        1 MOL1        -0.1378
       8    H5      17.540771   18.919032   24.131947 H          1 MOL1         0.0993
       9    H6      18.691713   20.208165   24.400920 H          1 MOL1         0.0993
      10    C3      19.022791   19.052353   22.572454 C.3        1 MOL1        -0.1338
      11    H7      18.321545   19.652665   21.976516 H          1 MOL1         0.0993
      12    H8      18.895181   18.012917   22.241505 H          1 MOL1         0.0993
      13    C4      20.466428   19.527666   22.271595 C.3        1 MOL1        -0.1338
      14    H9      20.644024   20.489483   22.772454 H          1 MOL1         0.0993
      15    H10     21.190318   18.813993   22.683070 H          1 MOL1         0.0993
      16    C5      20.748832   19.700957   20.759651 C.3        1 MOL1        -0.1313
      17    H11     21.757968   20.117633   20.633503 H          1 MOL1         0.0993
      18    H12     20.056369   20.440724   20.334105 H          1 MOL1         0.0993
      19    C6      20.650578   18.379559   19.963679 C.3        1 MOL1        -0.2328
      20    H13     21.319502   17.615942   20.381286 H          1 MOL1         0.1004
      21    H14     20.936946   18.539583   18.916160 H          1 MOL1         0.1004
      22    H15     19.628307   17.981272   19.969077 H          1 MOL1         0.1004
      23    C7      20.764021   19.893234   26.273297 C.3        1 MOL1        -0.0781
      24    H16     20.174146   19.692808   27.170323 H          1 MOL1         0.0978
      25    H17     21.789144   20.143958   26.554892 H          1 MOL1         0.0978
      26    H18     20.323251   20.722969   25.717414 H          1 MOL1         0.0978
@<TRIPOS>BOND
    1     1     2    1
    2     1     3    1
    3     1     4    1
    4     4     5    1
    5     4     6    1
    6     4     7    1
    7     7     8    1
    8     7     9    1
    9     7    10    1
   10    10    11    1
   11    10    12    1
   12    10    13    1
   13    13    14    1
   14    13    15    1
   15    13    16    1
   16    16    17    1
   17    16    18    1
   18    16    19    1
   19    19    20    1
   20    19    21    1
   21    19    22    1
   22     1    23    1
   23    23    24    1
   24    23    25    1
   25    23    26    1
@<TRIPOS>SUBSTRUCTURE
       1 MOL1            1 RESIDUE      1      MOL     
@<SCITEGIC>MOL_PROPERTY
VM2 Rank
SciTegic.value.IntegerValue
128

@<SCITEGIC>MOL_PROPERTY
Conf_Id
SciTegic.value.IntegerValue
749

@<SCITEGIC>MOL_PROPERTY
Probability
SciTegic.value.DoubleValue
0.02

@<SCITEGIC>MOL_PROPERTY
Sum Probability
SciTegic.value.DoubleValue
99.53

@<SCITEGIC>MOL_PROPERTY
Delta G
SciTegic.value.DoubleValue
3.551

@<SCITEGIC>MOL_PROPERTY
G
SciTegic.value.DoubleValue
79.017

@<SCITEGIC>MOL_PROPERTY
E
SciTegic.value.DoubleValue
46.514

@<SCITEGIC>MOL_PROPERTY
-TS
SciTegic.value.DoubleValue
32.503

@<SCITEGIC>MOL_PROPERTY
U+W
SciTegic.value.DoubleValue
25.052

@<SCITEGIC>MOL_PROPERTY
U
SciTegic.value.DoubleValue
74.899

@<SCITEGIC>MOL_PROPERTY
W
SciTegic.value.DoubleValue
-49.847

@<SCITEGIC>MOL_PROPERTY
W(PB)
SciTegic.value.DoubleValue
-52.061

@<SCITEGIC>MOL_PROPERTY
W(SA)
SciTegic.value.DoubleValue
2.214

@<SCITEGIC>MOL_PROPERTY
Valence
SciTegic.value.DoubleValue
4.085

@<SCITEGIC>MOL_PROPERTY
Coulomb
SciTegic.value.DoubleValue
70.542

@<SCITEGIC>MOL_PROPERTY
VdW
SciTegic.value.DoubleValue
0.273

@<SCITEGIC>MOL_PROPERTY
VdW6
SciTegic.value.DoubleValue
-8.421

@<SCITEGIC>MOL_PROPERTY
VdW12
SciTegic.value.DoubleValue
8.694

@<SCITEGIC>MOL_PROPERTY
Bond
SciTegic.value.DoubleValue
0.258

@<SCITEGIC>MOL_PROPERTY
Angle
SciTegic.value.DoubleValue
1.367

@<SCITEGIC>MOL_PROPERTY
Pdih
SciTegic.value.DoubleValue
2.459

@<SCITEGIC>MOL_PROPERTY
Idih
SciTegic.value.DoubleValue
0.000

@<SCITEGIC>MOL_PROPERTY
Tether
SciTegic.value.DoubleValue
0.000

@<TRIPOS>MOLECULE
guest-s12_vm2.mol2 : vm2 ligand conformer 129
          26          25           1
SMALL
USER_CHARGES
 
@<TRIPOS>ATOM
       1    N1      19.945458   18.962190   26.280894 N.4        1 MOL1        -0.4857
       2    H1      19.801151   17.948046   26.403772 H          1 MOL1         0.3650
       3    H2      19.496403   19.396404   27.102924 H          1 MOL1         0.3650
       4    C1      19.256989   19.441292   25.013742 C.3        1 MOL1         0.0209
       5    H3      19.467694   20.507507   24.899000 H          1 MOL1         0.0967
       6    H4      18.180901   19.322637   25.164110 H          1 MOL1         0.0967
       7    C2      19.670431   18.684761   23.735091 C.3        1 MOL1        -0.1378
       8    H5      20.744981   18.811010   23.566175 H          1 MOL1         0.0993
       9    H6      19.496203   17.610237   23.878391 H          1 MOL1         0.0993
      10    C3      18.869263   19.178649   22.506481 C.3        1 MOL1        -0.1338
      11    H7      18.982101   20.265161   22.387293 H          1 MOL1         0.0993
      12    H8      17.802054   19.004499   22.702625 H          1 MOL1         0.0993
      13    C4      19.250619   18.456008   21.187852 C.3        1 MOL1        -0.1338
      14    H9      19.585993   17.430938   21.397434 H          1 MOL1         0.0993
      15    H10     18.341014   18.350554   20.580392 H          1 MOL1         0.0993
      16    C5      20.304238   19.195269   20.323515 C.3        1 MOL1        -0.1313
      17    H11     19.914679   20.180141   20.030135 H          1 MOL1         0.0993
      18    H12     20.443801   18.633716   19.389152 H          1 MOL1         0.0993
      19    C6      21.679111   19.370943   21.004929 C.3        1 MOL1        -0.2328
      20    H13     22.409480   19.779191   20.294450 H          1 MOL1         0.1004
      21    H14     22.066640   18.410992   21.369816 H          1 MOL1         0.1004
      22    H15     21.619602   20.068932   21.848989 H          1 MOL1         0.1004
      23    C7      21.431891   19.300889   26.264497 C.3        1 MOL1        -0.0781
      24    H16     21.882446   18.976085   27.205026 H          1 MOL1         0.0978
      25    H17     21.911729   18.784691   25.430646 H          1 MOL1         0.0978
      26    H18     21.552588   20.380478   26.151514 H          1 MOL1         0.0978
@<TRIPOS>BOND
    1     1     2    1
    2     1     3    1
    3     1     4    1
    4     4     5    1
    5     4     6    1
    6     4     7    1
    7     7     8    1
    8     7     9    1
    9     7    10    1
   10    10    11    1
   11    10    12    1
   12    10    13    1
   13    13    14    1
   14    13    15    1
   15    13    16    1
   16    16    17    1
   17    16    18    1
   18    16    19    1
   19    19    20    1
   20    19    21    1
   21    19    22    1
   22     1    23    1
   23    23    24    1
   24    23    25    1
   25    23    26    1
@<TRIPOS>SUBSTRUCTURE
       1 MOL1            1 RESIDUE      1      MOL     
@<SCITEGIC>MOL_PROPERTY
VM2 Rank
SciTegic.value.IntegerValue
129

@<SCITEGIC>MOL_PROPERTY
Conf_Id
SciTegic.value.IntegerValue
1370

@<SCITEGIC>MOL_PROPERTY
Probability
SciTegic.value.DoubleValue
0.02

@<SCITEGIC>MOL_PROPERTY
Sum Probability
SciTegic.value.DoubleValue
99.55

@<SCITEGIC>MOL_PROPERTY
Delta G
SciTegic.value.DoubleValue
3.588

@<SCITEGIC>MOL_PROPERTY
G
SciTegic.value.DoubleValue
79.054

@<SCITEGIC>MOL_PROPERTY
E
SciTegic.value.DoubleValue
46.370

@<SCITEGIC>MOL_PROPERTY
-TS
SciTegic.value.DoubleValue
32.684

@<SCITEGIC>MOL_PROPERTY
U+W
SciTegic.value.DoubleValue
24.909

@<SCITEGIC>MOL_PROPERTY
U
SciTegic.value.DoubleValue
74.399

@<SCITEGIC>MOL_PROPERTY
W
SciTegic.value.DoubleValue
-49.491

@<SCITEGIC>MOL_PROPERTY
W(PB)
SciTegic.value.DoubleValue
-51.725

@<SCITEGIC>MOL_PROPERTY
W(SA)
SciTegic.value.DoubleValue
2.234

@<SCITEGIC>MOL_PROPERTY
Valence
SciTegic.value.DoubleValue
4.964

@<SCITEGIC>MOL_PROPERTY
Coulomb
SciTegic.value.DoubleValue
68.942

@<SCITEGIC>MOL_PROPERTY
VdW
SciTegic.value.DoubleValue
0.494

@<SCITEGIC>MOL_PROPERTY
VdW6
SciTegic.value.DoubleValue
-7.589

@<SCITEGIC>MOL_PROPERTY
VdW12
SciTegic.value.DoubleValue
8.083

@<SCITEGIC>MOL_PROPERTY
Bond
SciTegic.value.DoubleValue
0.249

@<SCITEGIC>MOL_PROPERTY
Angle
SciTegic.value.DoubleValue
1.244

@<SCITEGIC>MOL_PROPERTY
Pdih
SciTegic.value.DoubleValue
3.471

@<SCITEGIC>MOL_PROPERTY
Idih
SciTegic.value.DoubleValue
0.000

@<SCITEGIC>MOL_PROPERTY
Tether
SciTegic.value.DoubleValue
0.000

@<TRIPOS>MOLECULE
guest-s12_vm2.mol2 : vm2 ligand conformer 130
          26          25           1
SMALL
USER_CHARGES
 
@<TRIPOS>ATOM
       1    N1      19.278513   18.493920   25.342439 N.4        1 MOL1        -0.4857
       2    H1      18.938988   17.639178   25.811525 H          1 MOL1         0.3650
       3    H2      18.757027   18.541039   24.456101 H          1 MOL1         0.3650
       4    C1      20.768677   18.364070   25.068734 C.3        1 MOL1         0.0209
       5    H3      20.942073   17.382829   24.619746 H          1 MOL1         0.0967
       6    H4      21.271313   18.379953   26.039073 H          1 MOL1         0.0967
       7    C2      21.387781   19.451760   24.160183 C.3        1 MOL1        -0.1378
       8    H5      21.072263   20.451147   24.485169 H          1 MOL1         0.0993
       9    H6      22.475568   19.422676   24.306688 H          1 MOL1         0.0993
      10    C3      21.109987   19.265262   22.646398 C.3        1 MOL1        -0.1338
      11    H7      21.467512   18.275310   22.332695 H          1 MOL1         0.0993
      12    H8      21.715669   19.998901   22.096682 H          1 MOL1         0.0993
      13    C4      19.624818   19.441668   22.241821 C.3        1 MOL1        -0.1338
      14    H9      19.032824   18.593668   22.606646 H          1 MOL1         0.0993
      15    H10     19.222179   20.344234   22.722181 H          1 MOL1         0.0993
      16    C5      19.419823   19.565316   20.712622 C.3        1 MOL1        -0.1313
      17    H11     19.976736   20.432715   20.331420 H          1 MOL1         0.0993
      18    H12     18.358706   19.770580   20.513154 H          1 MOL1         0.0993
      19    C6      19.838347   18.296784   19.934817 C.3        1 MOL1        -0.2328
      20    H13     19.599757   18.403357   18.868690 H          1 MOL1         0.1004
      21    H14     19.309724   17.410842   20.309820 H          1 MOL1         0.1004
      22    H15     20.917020   18.112997   20.014713 H          1 MOL1         0.1004
      23    C7      18.980054   19.711220   26.209987 C.3        1 MOL1        -0.0781
      24    H16     19.533850   19.627635   27.147592 H          1 MOL1         0.0978
      25    H17     19.282191   20.616736   25.680365 H          1 MOL1         0.0978
      26    H18     17.908255   19.747915   26.417193 H          1 MOL1         0.0978
@<TRIPOS>BOND
    1     1     2    1
    2     1     3    1
    3     1     4    1
    4     4     5    1
    5     4     6    1
    6     4     7    1
    7     7     8    1
    8     7     9    1
    9     7    10    1
   10    10    11    1
   11    10    12    1
   12    10    13    1
   13    13    14    1
   14    13    15    1
   15    13    16    1
   16    16    17    1
   17    16    18    1
   18    16    19    1
   19    19    20    1
   20    19    21    1
   21    19    22    1
   22     1    23    1
   23    23    24    1
   24    23    25    1
   25    23    26    1
@<TRIPOS>SUBSTRUCTURE
       1 MOL1            1 RESIDUE      1      MOL     
@<SCITEGIC>MOL_PROPERTY
VM2 Rank
SciTegic.value.IntegerValue
130

@<SCITEGIC>MOL_PROPERTY
Conf_Id
SciTegic.value.IntegerValue
1356

@<SCITEGIC>MOL_PROPERTY
Probability
SciTegic.value.DoubleValue
0.02

@<SCITEGIC>MOL_PROPERTY
Sum Probability
SciTegic.value.DoubleValue
99.57

@<SCITEGIC>MOL_PROPERTY
Delta G
SciTegic.value.DoubleValue
3.612

@<SCITEGIC>MOL_PROPERTY
G
SciTegic.value.DoubleValue
79.078

@<SCITEGIC>MOL_PROPERTY
E
SciTegic.value.DoubleValue
46.575

@<SCITEGIC>MOL_PROPERTY
-TS
SciTegic.value.DoubleValue
32.503

@<SCITEGIC>MOL_PROPERTY
U+W
SciTegic.value.DoubleValue
25.113

@<SCITEGIC>MOL_PROPERTY
U
SciTegic.value.DoubleValue
74.899

@<SCITEGIC>MOL_PROPERTY
W
SciTegic.value.DoubleValue
-49.786

@<SCITEGIC>MOL_PROPERTY
W(PB)
SciTegic.value.DoubleValue
-51.982

@<SCITEGIC>MOL_PROPERTY
W(SA)
SciTegic.value.DoubleValue
2.195

@<SCITEGIC>MOL_PROPERTY
Valence
SciTegic.value.DoubleValue
4.085

@<SCITEGIC>MOL_PROPERTY
Coulomb
SciTegic.value.DoubleValue
70.542

@<SCITEGIC>MOL_PROPERTY
VdW
SciTegic.value.DoubleValue
0.273

@<SCITEGIC>MOL_PROPERTY
VdW6
SciTegic.value.DoubleValue
-8.421

@<SCITEGIC>MOL_PROPERTY
VdW12
SciTegic.value.DoubleValue
8.694

@<SCITEGIC>MOL_PROPERTY
Bond
SciTegic.value.DoubleValue
0.258

@<SCITEGIC>MOL_PROPERTY
Angle
SciTegic.value.DoubleValue
1.368

@<SCITEGIC>MOL_PROPERTY
Pdih
SciTegic.value.DoubleValue
2.459

@<SCITEGIC>MOL_PROPERTY
Idih
SciTegic.value.DoubleValue
0.000

@<SCITEGIC>MOL_PROPERTY
Tether
SciTegic.value.DoubleValue
0.000

@<TRIPOS>MOLECULE
guest-s12_vm2.mol2 : vm2 ligand conformer 131
          26          25           1
SMALL
USER_CHARGES
 
@<TRIPOS>ATOM
       1    N1      20.543567   18.732870   26.138954 N.4        1 MOL1        -0.4857
       2    H1      20.896383   19.161297   27.009539 H          1 MOL1         0.3650
       3    H2      21.270684   18.055312   25.862272 H          1 MOL1         0.3650
       4    C1      20.389540   19.803792   25.071841 C.3        1 MOL1         0.0209
       5    H3      21.322313   20.372946   25.046111 H          1 MOL1         0.0967
       6    H4      19.589141   20.478638   25.385401 H          1 MOL1         0.0967
       7    C2      20.094636   19.261458   23.658589 C.3        1 MOL1        -0.1378
       8    H5      20.880895   18.548185   23.382654 H          1 MOL1         0.0993
       9    H6      19.141211   18.717838   23.660724 H          1 MOL1         0.0993
      10    C3      20.036004   20.403748   22.619254 C.3        1 MOL1        -0.1338
      11    H7      21.021947   20.883794   22.548650 H          1 MOL1         0.0993
      12    H8      19.344897   21.178197   22.980256 H          1 MOL1         0.0993
      13    C4      19.574911   19.962374   21.205795 C.3        1 MOL1        -0.1338
      14    H9      18.545256   19.581028   21.245903 H          1 MOL1         0.0993
      15    H10     19.531538   20.862547   20.577050 H          1 MOL1         0.0993
      16    C5      20.501423   18.932308   20.509138 C.3        1 MOL1        -0.1313
      17    H11     21.538790   19.060459   20.848364 H          1 MOL1         0.0993
      18    H12     20.508979   19.142717   19.430399 H          1 MOL1         0.0993
      19    C6      20.048499   17.466154   20.704135 C.3        1 MOL1        -0.2328
      20    H13     19.037753   17.311979   20.304575 H          1 MOL1         0.1004
      21    H14     20.042045   17.171803   21.759212 H          1 MOL1         0.1004
      22    H15     20.723306   16.782361   20.173131 H          1 MOL1         0.1004
      23    C7      19.219420   18.027297   26.409293 C.3        1 MOL1        -0.0781
      24    H16     18.886212   17.522341   25.500431 H          1 MOL1         0.0978
      25    H17     19.361965   17.293291   27.205538 H          1 MOL1         0.0978
      26    H18     18.475918   18.765618   26.717396 H          1 MOL1         0.0978
@<TRIPOS>BOND
    1     1     2    1
    2     1     3    1
    3     1     4    1
    4     4     5    1
    5     4     6    1
    6     4     7    1
    7     7     8    1
    8     7     9    1
    9     7    10    1
   10    10    11    1
   11    10    12    1
   12    10    13    1
   13    13    14    1
   14    13    15    1
   15    13    16    1
   16    16    17    1
   17    16    18    1
   18    16    19    1
   19    19    20    1
   20    19    21    1
   21    19    22    1
   22     1    23    1
   23    23    24    1
   24    23    25    1
   25    23    26    1
@<TRIPOS>SUBSTRUCTURE
       1 MOL1            1 RESIDUE      1      MOL     
@<SCITEGIC>MOL_PROPERTY
VM2 Rank
SciTegic.value.IntegerValue
131

@<SCITEGIC>MOL_PROPERTY
Conf_Id
SciTegic.value.IntegerValue
838

@<SCITEGIC>MOL_PROPERTY
Probability
SciTegic.value.DoubleValue
0.02

@<SCITEGIC>MOL_PROPERTY
Sum Probability
SciTegic.value.DoubleValue
99.58

@<SCITEGIC>MOL_PROPERTY
Delta G
SciTegic.value.DoubleValue
3.617

@<SCITEGIC>MOL_PROPERTY
G
SciTegic.value.DoubleValue
79.083

@<SCITEGIC>MOL_PROPERTY
E
SciTegic.value.DoubleValue
46.412

@<SCITEGIC>MOL_PROPERTY
-TS
SciTegic.value.DoubleValue
32.671

@<SCITEGIC>MOL_PROPERTY
U+W
SciTegic.value.DoubleValue
24.950

@<SCITEGIC>MOL_PROPERTY
U
SciTegic.value.DoubleValue
74.475

@<SCITEGIC>MOL_PROPERTY
W
SciTegic.value.DoubleValue
-49.525

@<SCITEGIC>MOL_PROPERTY
W(PB)
SciTegic.value.DoubleValue
-51.777

@<SCITEGIC>MOL_PROPERTY
W(SA)
SciTegic.value.DoubleValue
2.252

@<SCITEGIC>MOL_PROPERTY
Valence
SciTegic.value.DoubleValue
4.983

@<SCITEGIC>MOL_PROPERTY
Coulomb
SciTegic.value.DoubleValue
68.966

@<SCITEGIC>MOL_PROPERTY
VdW
SciTegic.value.DoubleValue
0.526

@<SCITEGIC>MOL_PROPERTY
VdW6
SciTegic.value.DoubleValue
-7.550

@<SCITEGIC>MOL_PROPERTY
VdW12
SciTegic.value.DoubleValue
8.077

@<SCITEGIC>MOL_PROPERTY
Bond
SciTegic.value.DoubleValue
0.247

@<SCITEGIC>MOL_PROPERTY
Angle
SciTegic.value.DoubleValue
1.294

@<SCITEGIC>MOL_PROPERTY
Pdih
SciTegic.value.DoubleValue
3.441

@<SCITEGIC>MOL_PROPERTY
Idih
SciTegic.value.DoubleValue
0.000

@<SCITEGIC>MOL_PROPERTY
Tether
SciTegic.value.DoubleValue
0.000

@<TRIPOS>MOLECULE
guest-s12_vm2.mol2 : vm2 ligand conformer 132
          26          25           1
SMALL
USER_CHARGES
 
@<TRIPOS>ATOM
       1    N1      19.967089   18.964081   26.281617 N.4        1 MOL1        -0.4857
       2    H1      20.260638   19.473859   27.130076 H          1 MOL1         0.3650
       3    H2      20.304034   17.999006   26.421298 H          1 MOL1         0.3650
       4    C1      20.631757   19.581555   25.062541 C.3        1 MOL1         0.0209
       5    H3      21.696404   19.681453   25.288820 H          1 MOL1         0.0967
       6    H4      20.218732   20.584103   24.925856 H          1 MOL1         0.0967
       7    C2      20.470197   18.766512   23.763376 C.3        1 MOL1        -0.1378
       8    H5      20.847486   17.748329   23.926005 H          1 MOL1         0.0993
       9    H6      19.406809   18.674287   23.518785 H          1 MOL1         0.0993
      10    C3      21.238996   19.421097   22.590450 C.3        1 MOL1        -0.1338
      11    H7      22.302958   19.464913   22.862113 H          1 MOL1         0.0993
      12    H8      20.917425   20.463188   22.455968 H          1 MOL1         0.0993
      13    C4      21.104982   18.645869   21.253479 C.3        1 MOL1        -0.1338
      14    H9      22.057352   18.731051   20.711958 H          1 MOL1         0.0993
      15    H10     20.970118   17.572645   21.446279 H          1 MOL1         0.0993
      16    C5      19.986729   19.162951   20.312291 C.3        1 MOL1        -0.1313
      17    H11     20.029457   18.591622   19.374414 H          1 MOL1         0.0993
      18    H12     20.188501   20.208394   20.040008 H          1 MOL1         0.0993
      19    C6      18.560488   19.051805   20.894477 C.3        1 MOL1        -0.2328
      20    H13     18.418250   19.741274   21.735646 H          1 MOL1         0.1004
      21    H14     18.350682   18.030676   21.238142 H          1 MOL1         0.1004
      22    H15     17.814187   19.308917   20.131710 H          1 MOL1         0.1004
      23    C7      18.447762   18.996130   26.158769 C.3        1 MOL1        -0.0781
      24    H16     18.119997   20.029999   26.030198 H          1 MOL1         0.0978
      25    H17     18.141499   18.399971   25.296907 H          1 MOL1         0.0978
      26    H18     18.007256   18.580151   27.067619 H          1 MOL1         0.0978
@<TRIPOS>BOND
    1     1     2    1
    2     1     3    1
    3     1     4    1
    4     4     5    1
    5     4     6    1
    6     4     7    1
    7     7     8    1
    8     7     9    1
    9     7    10    1
   10    10    11    1
   11    10    12    1
   12    10    13    1
   13    13    14    1
   14    13    15    1
   15    13    16    1
   16    16    17    1
   17    16    18    1
   18    16    19    1
   19    19    20    1
   20    19    21    1
   21    19    22    1
   22     1    23    1
   23    23    24    1
   24    23    25    1
   25    23    26    1
@<TRIPOS>SUBSTRUCTURE
       1 MOL1            1 RESIDUE      1      MOL     
@<SCITEGIC>MOL_PROPERTY
VM2 Rank
SciTegic.value.IntegerValue
132

@<SCITEGIC>MOL_PROPERTY
Conf_Id
SciTegic.value.IntegerValue
1091

@<SCITEGIC>MOL_PROPERTY
Probability
SciTegic.value.DoubleValue
0.02

@<SCITEGIC>MOL_PROPERTY
Sum Probability
SciTegic.value.DoubleValue
99.60

@<SCITEGIC>MOL_PROPERTY
Delta G
SciTegic.value.DoubleValue
3.638

@<SCITEGIC>MOL_PROPERTY
G
SciTegic.value.DoubleValue
79.104

@<SCITEGIC>MOL_PROPERTY
E
SciTegic.value.DoubleValue
46.420

@<SCITEGIC>MOL_PROPERTY
-TS
SciTegic.value.DoubleValue
32.684

@<SCITEGIC>MOL_PROPERTY
U+W
SciTegic.value.DoubleValue
24.958

@<SCITEGIC>MOL_PROPERTY
U
SciTegic.value.DoubleValue
74.399

@<SCITEGIC>MOL_PROPERTY
W
SciTegic.value.DoubleValue
-49.441

@<SCITEGIC>MOL_PROPERTY
W(PB)
SciTegic.value.DoubleValue
-51.681

@<SCITEGIC>MOL_PROPERTY
W(SA)
SciTegic.value.DoubleValue
2.240

@<SCITEGIC>MOL_PROPERTY
Valence
SciTegic.value.DoubleValue
4.963

@<SCITEGIC>MOL_PROPERTY
Coulomb
SciTegic.value.DoubleValue
68.942

@<SCITEGIC>MOL_PROPERTY
VdW
SciTegic.value.DoubleValue
0.494

@<SCITEGIC>MOL_PROPERTY
VdW6
SciTegic.value.DoubleValue
-7.589

@<SCITEGIC>MOL_PROPERTY
VdW12
SciTegic.value.DoubleValue
8.083

@<SCITEGIC>MOL_PROPERTY
Bond
SciTegic.value.DoubleValue
0.249

@<SCITEGIC>MOL_PROPERTY
Angle
SciTegic.value.DoubleValue
1.244

@<SCITEGIC>MOL_PROPERTY
Pdih
SciTegic.value.DoubleValue
3.470

@<SCITEGIC>MOL_PROPERTY
Idih
SciTegic.value.DoubleValue
0.000

@<SCITEGIC>MOL_PROPERTY
Tether
SciTegic.value.DoubleValue
0.000

@<TRIPOS>MOLECULE
guest-s12_vm2.mol2 : vm2 ligand conformer 133
          26          25           1
SMALL
USER_CHARGES
 
@<TRIPOS>ATOM
       1    N1      20.239910   19.214933   25.837988 N.4        1 MOL1        -0.4857
       2    H1      21.248885   19.003871   25.883353 H          1 MOL1         0.3650
       3    H2      19.782694   18.496495   26.420697 H          1 MOL1         0.3650
       4    C1      19.748980   19.118832   24.407805 C.3        1 MOL1         0.0209
       5    H3      20.253670   19.896330   23.832670 H          1 MOL1         0.0967
       6    H4      18.677650   19.334647   24.407189 H          1 MOL1         0.0967
       7    C2      19.996942   17.737608   23.770538 C.3        1 MOL1        -0.1378
       8    H5      21.065883   17.488871   23.804828 H          1 MOL1         0.0993
       9    H6      19.483638   16.983697   24.382165 H          1 MOL1         0.0993
      10    C3      19.472743   17.630744   22.315802 C.3        1 MOL1        -0.1338
      11    H7      18.510623   18.151253   22.218402 H          1 MOL1         0.0993
      12    H8      19.252551   16.573169   22.114673 H          1 MOL1         0.0993
      13    C4      20.468569   18.109510   21.224359 C.3        1 MOL1        -0.1338
      14    H9      21.382865   17.503458   21.287360 H          1 MOL1         0.0993
      15    H10     20.035338   17.889508   20.238865 H          1 MOL1         0.0993
      16    C5      20.862182   19.607161   21.264090 C.3        1 MOL1        -0.1313
      17    H11     21.570286   19.800816   20.446236 H          1 MOL1         0.0993
      18    H12     21.411603   19.832321   22.186814 H          1 MOL1         0.0993
      19    C6      19.658436   20.564654   21.108166 C.3        1 MOL1        -0.2328
      20    H13     18.955730   20.475562   21.945092 H          1 MOL1         0.1004
      21    H14     19.110586   20.358575   20.179554 H          1 MOL1         0.1004
      22    H15     19.998939   21.607511   21.071486 H          1 MOL1         0.1004
      23    C7      19.960239   20.606559   26.388253 C.3        1 MOL1        -0.0781
      24    H16     20.480577   21.346254   25.775840 H          1 MOL1         0.0978
      25    H17     18.884571   20.794026   26.361047 H          1 MOL1         0.0978
      26    H18     20.318500   20.662915   27.418594 H          1 MOL1         0.0978
@<TRIPOS>BOND
    1     1     2    1
    2     1     3    1
    3     1     4    1
    4     4     5    1
    5     4     6    1
    6     4     7    1
    7     7     8    1
    8     7     9    1
    9     7    10    1
   10    10    11    1
   11    10    12    1
   12    10    13    1
   13    13    14    1
   14    13    15    1
   15    13    16    1
   16    16    17    1
   17    16    18    1
   18    16    19    1
   19    19    20    1
   20    19    21    1
   21    19    22    1
   22     1    23    1
   23    23    24    1
   24    23    25    1
   25    23    26    1
@<TRIPOS>SUBSTRUCTURE
       1 MOL1            1 RESIDUE      1      MOL     
@<SCITEGIC>MOL_PROPERTY
VM2 Rank
SciTegic.value.IntegerValue
133

@<SCITEGIC>MOL_PROPERTY
Conf_Id
SciTegic.value.IntegerValue
807

@<SCITEGIC>MOL_PROPERTY
Probability
SciTegic.value.DoubleValue
0.02

@<SCITEGIC>MOL_PROPERTY
Sum Probability
SciTegic.value.DoubleValue
99.62

@<SCITEGIC>MOL_PROPERTY
Delta G
SciTegic.value.DoubleValue
3.638

@<SCITEGIC>MOL_PROPERTY
G
SciTegic.value.DoubleValue
79.104

@<SCITEGIC>MOL_PROPERTY
E
SciTegic.value.DoubleValue
46.121

@<SCITEGIC>MOL_PROPERTY
-TS
SciTegic.value.DoubleValue
32.984

@<SCITEGIC>MOL_PROPERTY
U+W
SciTegic.value.DoubleValue
24.659

@<SCITEGIC>MOL_PROPERTY
U
SciTegic.value.DoubleValue
74.250

@<SCITEGIC>MOL_PROPERTY
W
SciTegic.value.DoubleValue
-49.592

@<SCITEGIC>MOL_PROPERTY
W(PB)
SciTegic.value.DoubleValue
-51.810

@<SCITEGIC>MOL_PROPERTY
W(SA)
SciTegic.value.DoubleValue
2.218

@<SCITEGIC>MOL_PROPERTY
Valence
SciTegic.value.DoubleValue
4.607

@<SCITEGIC>MOL_PROPERTY
Coulomb
SciTegic.value.DoubleValue
69.758

@<SCITEGIC>MOL_PROPERTY
VdW
SciTegic.value.DoubleValue
-0.115

@<SCITEGIC>MOL_PROPERTY
VdW6
SciTegic.value.DoubleValue
-8.153

@<SCITEGIC>MOL_PROPERTY
VdW12
SciTegic.value.DoubleValue
8.038

@<SCITEGIC>MOL_PROPERTY
Bond
SciTegic.value.DoubleValue
0.239

@<SCITEGIC>MOL_PROPERTY
Angle
SciTegic.value.DoubleValue
1.671

@<SCITEGIC>MOL_PROPERTY
Pdih
SciTegic.value.DoubleValue
2.697

@<SCITEGIC>MOL_PROPERTY
Idih
SciTegic.value.DoubleValue
0.000

@<SCITEGIC>MOL_PROPERTY
Tether
SciTegic.value.DoubleValue
0.000

@<TRIPOS>MOLECULE
guest-s12_vm2.mol2 : vm2 ligand conformer 134
          26          25           1
SMALL
USER_CHARGES
 
@<TRIPOS>ATOM
       1    N1      19.659540   19.155189   25.817508 N.4        1 MOL1        -0.4857
       2    H1      20.211568   18.540664   26.435871 H          1 MOL1         0.3650
       3    H2      18.713974   18.742899   25.793845 H          1 MOL1         0.3650
       4    C1      20.258381   19.171269   24.425818 C.3        1 MOL1         0.0209
       5    H3      21.260735   19.600611   24.498444 H          1 MOL1         0.0967
       6    H4      19.647428   19.833880   23.811265 H          1 MOL1         0.0967
       7    C2      20.341831   17.773091   23.782768 C.3        1 MOL1        -0.1378
       8    H5      20.953728   17.135027   24.434234 H          1 MOL1         0.0993
       9    H6      19.346134   17.311825   23.744005 H          1 MOL1         0.0993
      10    C3      20.977266   17.785541   22.369073 C.3        1 MOL1        -0.1338
      11    H7      21.421443   16.796319   22.191460 H          1 MOL1         0.0993
      12    H8      21.817842   18.491512   22.335481 H          1 MOL1         0.0993
      13    C4      19.983742   18.059636   21.207214 C.3        1 MOL1        -0.1338
      14    H9      20.520503   17.939312   20.256058 H          1 MOL1         0.0993
      15    H10     19.209605   17.279951   21.210517 H          1 MOL1         0.0993
      16    C5      19.292138   19.445691   21.208417 C.3        1 MOL1        -0.1313
      17    H11     18.645146   19.547863   22.088725 H          1 MOL1         0.0993
      18    H12     18.618538   19.497226   20.341582 H          1 MOL1         0.0993
      19    C6      20.284045   20.628962   21.130277 C.3        1 MOL1        -0.2328
      20    H13     20.929719   20.678623   22.015047 H          1 MOL1         0.1004
      21    H14     19.742114   21.581070   21.062176 H          1 MOL1         0.1004
      22    H15     20.926105   20.545142   20.243903 H          1 MOL1         0.1004
      23    C7      19.611057   20.570622   26.375925 C.3        1 MOL1        -0.0781
      24    H16     19.177771   20.545504   27.378302 H          1 MOL1         0.0978
      25    H17     20.625288   20.973245   26.422549 H          1 MOL1         0.0978
      26    H18     18.995151   21.193337   25.723365 H          1 MOL1         0.0978
@<TRIPOS>BOND
    1     1     2    1
    2     1     3    1
    3     1     4    1
    4     4     5    1
    5     4     6    1
    6     4     7    1
    7     7     8    1
    8     7     9    1
    9     7    10    1
   10    10    11    1
   11    10    12    1
   12    10    13    1
   13    13    14    1
   14    13    15    1
   15    13    16    1
   16    16    17    1
   17    16    18    1
   18    16    19    1
   19    19    20    1
   20    19    21    1
   21    19    22    1
   22     1    23    1
   23    23    24    1
   24    23    25    1
   25    23    26    1
@<TRIPOS>SUBSTRUCTURE
       1 MOL1            1 RESIDUE      1      MOL     
@<SCITEGIC>MOL_PROPERTY
VM2 Rank
SciTegic.value.IntegerValue
134

@<SCITEGIC>MOL_PROPERTY
Conf_Id
SciTegic.value.IntegerValue
164

@<SCITEGIC>MOL_PROPERTY
Probability
SciTegic.value.DoubleValue
0.02

@<SCITEGIC>MOL_PROPERTY
Sum Probability
SciTegic.value.DoubleValue
99.63

@<SCITEGIC>MOL_PROPERTY
Delta G
SciTegic.value.DoubleValue
3.648

@<SCITEGIC>MOL_PROPERTY
G
SciTegic.value.DoubleValue
79.114

@<SCITEGIC>MOL_PROPERTY
E
SciTegic.value.DoubleValue
46.131

@<SCITEGIC>MOL_PROPERTY
-TS
SciTegic.value.DoubleValue
32.983

@<SCITEGIC>MOL_PROPERTY
U+W
SciTegic.value.DoubleValue
24.669

@<SCITEGIC>MOL_PROPERTY
U
SciTegic.value.DoubleValue
74.250

@<SCITEGIC>MOL_PROPERTY
W
SciTegic.value.DoubleValue
-49.581

@<SCITEGIC>MOL_PROPERTY
W(PB)
SciTegic.value.DoubleValue
-51.813

@<SCITEGIC>MOL_PROPERTY
W(SA)
SciTegic.value.DoubleValue
2.232

@<SCITEGIC>MOL_PROPERTY
Valence
SciTegic.value.DoubleValue
4.607

@<SCITEGIC>MOL_PROPERTY
Coulomb
SciTegic.value.DoubleValue
69.758

@<SCITEGIC>MOL_PROPERTY
VdW
SciTegic.value.DoubleValue
-0.115

@<SCITEGIC>MOL_PROPERTY
VdW6
SciTegic.value.DoubleValue
-8.153

@<SCITEGIC>MOL_PROPERTY
VdW12
SciTegic.value.DoubleValue
8.038

@<SCITEGIC>MOL_PROPERTY
Bond
SciTegic.value.DoubleValue
0.239

@<SCITEGIC>MOL_PROPERTY
Angle
SciTegic.value.DoubleValue
1.671

@<SCITEGIC>MOL_PROPERTY
Pdih
SciTegic.value.DoubleValue
2.697

@<SCITEGIC>MOL_PROPERTY
Idih
SciTegic.value.DoubleValue
0.000

@<SCITEGIC>MOL_PROPERTY
Tether
SciTegic.value.DoubleValue
0.000

@<TRIPOS>MOLECULE
guest-s12_vm2.mol2 : vm2 ligand conformer 135
          26          25           1
SMALL
USER_CHARGES
 
@<TRIPOS>ATOM
       1    N1      19.473016   18.393749   26.078912 N.4        1 MOL1        -0.4857
       2    H1      19.481186   17.417892   25.744288 H          1 MOL1         0.3650
       3    H2      18.694104   18.436805   26.755225 H          1 MOL1         0.3650
       4    C1      19.196855   19.343086   24.924854 C.3        1 MOL1         0.0209
       5    H3      19.233886   20.364169   25.312667 H          1 MOL1         0.0967
       6    H4      18.177904   19.147844   24.580949 H          1 MOL1         0.0967
       7    C2      20.163665   19.199808   23.731907 C.3        1 MOL1        -0.1378
       8    H5      21.187018   19.426367   24.057549 H          1 MOL1         0.0993
       9    H6      20.162843   18.158266   23.392238 H          1 MOL1         0.0993
      10    C3      19.772778   20.151021   22.575250 C.3        1 MOL1        -0.1338
      11    H7      19.808485   21.181645   22.955123 H          1 MOL1         0.0993
      12    H8      18.731611   19.976380   22.270468 H          1 MOL1         0.0993
      13    C4      20.712115   20.048858   21.344910 C.3        1 MOL1        -0.1338
      14    H9      20.809275   21.051135   20.905010 H          1 MOL1         0.0993
      15    H10     21.725669   19.765772   21.660703 H          1 MOL1         0.0993
      16    C5      20.216794   19.096169   20.226620 C.3        1 MOL1        -0.1313
      17    H11     20.917416   19.157062   19.382062 H          1 MOL1         0.0993
      18    H12     19.248914   19.448971   19.843814 H          1 MOL1         0.0993
      19    C6      20.089088   17.618571   20.657505 C.3        1 MOL1        -0.2328
      20    H13     21.021595   17.254528   21.107768 H          1 MOL1         0.1004
      21    H14     19.865619   16.984390   19.789886 H          1 MOL1         0.1004
      22    H15     19.274511   17.482764   21.379375 H          1 MOL1         0.1004
      23    C7      20.783688   18.738740   26.777041 C.3        1 MOL1        -0.0781
      24    H16     20.738525   19.769274   27.135926 H          1 MOL1         0.0978
      25    H17     20.928058   18.060505   27.620985 H          1 MOL1         0.0978
      26    H18     21.609656   18.627473   26.071748 H          1 MOL1         0.0978
@<TRIPOS>BOND
    1     1     2    1
    2     1     3    1
    3     1     4    1
    4     4     5    1
    5     4     6    1
    6     4     7    1
    7     7     8    1
    8     7     9    1
    9     7    10    1
   10    10    11    1
   11    10    12    1
   12    10    13    1
   13    13    14    1
   14    13    15    1
   15    13    16    1
   16    16    17    1
   17    16    18    1
   18    16    19    1
   19    19    20    1
   20    19    21    1
   21    19    22    1
   22     1    23    1
   23    23    24    1
   24    23    25    1
   25    23    26    1
@<TRIPOS>SUBSTRUCTURE
       1 MOL1            1 RESIDUE      1      MOL     
@<SCITEGIC>MOL_PROPERTY
VM2 Rank
SciTegic.value.IntegerValue
135

@<SCITEGIC>MOL_PROPERTY
Conf_Id
SciTegic.value.IntegerValue
829

@<SCITEGIC>MOL_PROPERTY
Probability
SciTegic.value.DoubleValue
0.02

@<SCITEGIC>MOL_PROPERTY
Sum Probability
SciTegic.value.DoubleValue
99.65

@<SCITEGIC>MOL_PROPERTY
Delta G
SciTegic.value.DoubleValue
3.662

@<SCITEGIC>MOL_PROPERTY
G
SciTegic.value.DoubleValue
79.128

@<SCITEGIC>MOL_PROPERTY
E
SciTegic.value.DoubleValue
46.455

@<SCITEGIC>MOL_PROPERTY
-TS
SciTegic.value.DoubleValue
32.673

@<SCITEGIC>MOL_PROPERTY
U+W
SciTegic.value.DoubleValue
24.993

@<SCITEGIC>MOL_PROPERTY
U
SciTegic.value.DoubleValue
74.461

@<SCITEGIC>MOL_PROPERTY
W
SciTegic.value.DoubleValue
-49.468

@<SCITEGIC>MOL_PROPERTY
W(PB)
SciTegic.value.DoubleValue
-51.714

@<SCITEGIC>MOL_PROPERTY
W(SA)
SciTegic.value.DoubleValue
2.246

@<SCITEGIC>MOL_PROPERTY
Valence
SciTegic.value.DoubleValue
4.968

@<SCITEGIC>MOL_PROPERTY
Coulomb
SciTegic.value.DoubleValue
68.965

@<SCITEGIC>MOL_PROPERTY
VdW
SciTegic.value.DoubleValue
0.528

@<SCITEGIC>MOL_PROPERTY
VdW6
SciTegic.value.DoubleValue
-7.526

@<SCITEGIC>MOL_PROPERTY
VdW12
SciTegic.value.DoubleValue
8.054

@<SCITEGIC>MOL_PROPERTY
Bond
SciTegic.value.DoubleValue
0.248

@<SCITEGIC>MOL_PROPERTY
Angle
SciTegic.value.DoubleValue
1.260

@<SCITEGIC>MOL_PROPERTY
Pdih
SciTegic.value.DoubleValue
3.461

@<SCITEGIC>MOL_PROPERTY
Idih
SciTegic.value.DoubleValue
0.000

@<SCITEGIC>MOL_PROPERTY
Tether
SciTegic.value.DoubleValue
0.000

@<TRIPOS>MOLECULE
guest-s12_vm2.mol2 : vm2 ligand conformer 136
          26          25           1
SMALL
USER_CHARGES
 
@<TRIPOS>ATOM
       1    N1      19.908795   18.629005   26.190278 N.4        1 MOL1        -0.4857
       2    H1      20.320091   18.802734   27.121185 H          1 MOL1         0.3650
       3    H2      19.953221   17.605706   26.066724 H          1 MOL1         0.3650
       4    C1      20.744819   19.323310   25.128029 C.3        1 MOL1         0.0209
       5    H3      21.788641   19.055447   25.310581 H          1 MOL1         0.0967
       6    H4      20.641776   20.401995   25.270176 H          1 MOL1         0.0967
       7    C2      20.377526   18.948052   23.677965 C.3        1 MOL1        -0.1378
       8    H5      20.435640   17.858338   23.557406 H          1 MOL1         0.0993
       9    H6      19.341553   19.247400   23.479907 H          1 MOL1         0.0993
      10    C3      21.318494   19.636470   22.663483 C.3        1 MOL1        -0.1338
      11    H7      22.360130   19.437006   22.951403 H          1 MOL1         0.0993
      12    H8      21.188028   20.725765   22.726315 H          1 MOL1         0.0993
      13    C4      21.124489   19.177702   21.194747 C.3        1 MOL1        -0.1338
      14    H9      21.874278   19.699972   20.584366 H          1 MOL1         0.0993
      15    H10     21.358910   18.108588   21.098483 H          1 MOL1         0.0993
      16    C5      19.724682   19.475690   20.597564 C.3        1 MOL1        -0.1313
      17    H11     19.844235   19.723098   19.533372 H          1 MOL1         0.0993
      18    H12     19.290796   20.369206   21.067676 H          1 MOL1         0.0993
      19    C6      18.744732   18.283306   20.701075 C.3        1 MOL1        -0.2328
      20    H13     19.138936   17.405413   20.172931 H          1 MOL1         0.1004
      21    H14     17.779543   18.539291   20.245238 H          1 MOL1         0.1004
      22    H15     18.553729   17.993469   21.740019 H          1 MOL1         0.1004
      23    C7      18.464464   19.116464   26.163858 C.3        1 MOL1        -0.0781
      24    H16     17.906833   18.624223   26.963758 H          1 MOL1         0.0978
      25    H17     18.448086   20.198039   26.314763 H          1 MOL1         0.0978
      26    H18     18.016656   18.869669   25.199192 H          1 MOL1         0.0978
@<TRIPOS>BOND
    1     1     2    1
    2     1     3    1
    3     1     4    1
    4     4     5    1
    5     4     6    1
    6     4     7    1
    7     7     8    1
    8     7     9    1
    9     7    10    1
   10    10    11    1
   11    10    12    1
   12    10    13    1
   13    13    14    1
   14    13    15    1
   15    13    16    1
   16    16    17    1
   17    16    18    1
   18    16    19    1
   19    19    20    1
   20    19    21    1
   21    19    22    1
   22     1    23    1
   23    23    24    1
   24    23    25    1
   25    23    26    1
@<TRIPOS>SUBSTRUCTURE
       1 MOL1            1 RESIDUE      1      MOL     
@<SCITEGIC>MOL_PROPERTY
VM2 Rank
SciTegic.value.IntegerValue
136

@<SCITEGIC>MOL_PROPERTY
Conf_Id
SciTegic.value.IntegerValue
766

@<SCITEGIC>MOL_PROPERTY
Probability
SciTegic.value.DoubleValue
0.01

@<SCITEGIC>MOL_PROPERTY
Sum Probability
SciTegic.value.DoubleValue
99.66

@<SCITEGIC>MOL_PROPERTY
Delta G
SciTegic.value.DoubleValue
3.686

@<SCITEGIC>MOL_PROPERTY
G
SciTegic.value.DoubleValue
79.152

@<SCITEGIC>MOL_PROPERTY
E
SciTegic.value.DoubleValue
46.476

@<SCITEGIC>MOL_PROPERTY
-TS
SciTegic.value.DoubleValue
32.675

@<SCITEGIC>MOL_PROPERTY
U+W
SciTegic.value.DoubleValue
25.015

@<SCITEGIC>MOL_PROPERTY
U
SciTegic.value.DoubleValue
74.458

@<SCITEGIC>MOL_PROPERTY
W
SciTegic.value.DoubleValue
-49.443

@<SCITEGIC>MOL_PROPERTY
W(PB)
SciTegic.value.DoubleValue
-51.690

@<SCITEGIC>MOL_PROPERTY
W(SA)
SciTegic.value.DoubleValue
2.246

@<SCITEGIC>MOL_PROPERTY
Valence
SciTegic.value.DoubleValue
4.984

@<SCITEGIC>MOL_PROPERTY
Coulomb
SciTegic.value.DoubleValue
68.955

@<SCITEGIC>MOL_PROPERTY
VdW
SciTegic.value.DoubleValue
0.519

@<SCITEGIC>MOL_PROPERTY
VdW6
SciTegic.value.DoubleValue
-7.574

@<SCITEGIC>MOL_PROPERTY
VdW12
SciTegic.value.DoubleValue
8.093

@<SCITEGIC>MOL_PROPERTY
Bond
SciTegic.value.DoubleValue
0.248

@<SCITEGIC>MOL_PROPERTY
Angle
SciTegic.value.DoubleValue
1.287

@<SCITEGIC>MOL_PROPERTY
Pdih
SciTegic.value.DoubleValue
3.448

@<SCITEGIC>MOL_PROPERTY
Idih
SciTegic.value.DoubleValue
0.000

@<SCITEGIC>MOL_PROPERTY
Tether
SciTegic.value.DoubleValue
0.000

@<TRIPOS>MOLECULE
guest-s12_vm2.mol2 : vm2 ligand conformer 137
          26          25           1
SMALL
USER_CHARGES
 
@<TRIPOS>ATOM
       1    N1      20.584977   19.276592   25.431181 N.4        1 MOL1        -0.4857
       2    H1      21.109119   19.600654   24.605987 H          1 MOL1         0.3650
       3    H2      21.123974   18.480649   25.806336 H          1 MOL1         0.3650
       4    C1      19.197901   18.819169   25.022557 C.3        1 MOL1         0.0209
       5    H3      18.637698   19.687696   24.667350 H          1 MOL1         0.0967
       6    H4      18.708543   18.445953   25.925779 H          1 MOL1         0.0967
       7    C2      19.182296   17.711827   23.947722 C.3        1 MOL1        -0.1378
       8    H5      19.946386   16.956241   24.173672 H          1 MOL1         0.0993
       9    H6      18.216847   17.193146   24.016337 H          1 MOL1         0.0993
      10    C3      19.342952   18.226881   22.494365 C.3        1 MOL1        -0.1338
      11    H7      18.531163   18.932533   22.272410 H          1 MOL1         0.0993
      12    H8      19.205890   17.376302   21.812435 H          1 MOL1         0.0993
      13    C4      20.710903   18.891486   22.198589 C.3        1 MOL1        -0.1338
      14    H9      20.785063   19.849193   22.728932 H          1 MOL1         0.0993
      15    H10     21.516462   18.248976   22.580111 H          1 MOL1         0.0993
      16    C5      20.955087   19.140266   20.690493 C.3        1 MOL1        -0.1313
      17    H11     20.916932   18.186928   20.145009 H          1 MOL1         0.0993
      18    H12     21.974165   19.529432   20.556584 H          1 MOL1         0.0993
      19    C6      19.953545   20.137377   20.064363 C.3        1 MOL1        -0.2328
      20    H13     18.930871   19.740258   20.073236 H          1 MOL1         0.1004
      21    H14     20.218511   20.342996   19.019169 H          1 MOL1         0.1004
      22    H15     19.956465   21.092628   20.605171 H          1 MOL1         0.1004
      23    C7      20.480339   20.386400   26.467729 C.3        1 MOL1        -0.0781
      24    H16     19.949511   20.009471   27.344696 H          1 MOL1         0.0978
      25    H17     21.485022   20.705616   26.753775 H          1 MOL1         0.0978
      26    H18     19.933757   21.228782   26.038113 H          1 MOL1         0.0978
@<TRIPOS>BOND
    1     1     2    1
    2     1     3    1
    3     1     4    1
    4     4     5    1
    5     4     6    1
    6     4     7    1
    7     7     8    1
    8     7     9    1
    9     7    10    1
   10    10    11    1
   11    10    12    1
   12    10    13    1
   13    13    14    1
   14    13    15    1
   15    13    16    1
   16    16    17    1
   17    16    18    1
   18    16    19    1
   19    19    20    1
   20    19    21    1
   21    19    22    1
   22     1    23    1
   23    23    24    1
   24    23    25    1
   25    23    26    1
@<TRIPOS>SUBSTRUCTURE
       1 MOL1            1 RESIDUE      1      MOL     
@<SCITEGIC>MOL_PROPERTY
VM2 Rank
SciTegic.value.IntegerValue
137

@<SCITEGIC>MOL_PROPERTY
Conf_Id
SciTegic.value.IntegerValue
533

@<SCITEGIC>MOL_PROPERTY
Probability
SciTegic.value.DoubleValue
0.01

@<SCITEGIC>MOL_PROPERTY
Sum Probability
SciTegic.value.DoubleValue
99.68

@<SCITEGIC>MOL_PROPERTY
Delta G
SciTegic.value.DoubleValue
3.703

@<SCITEGIC>MOL_PROPERTY
G
SciTegic.value.DoubleValue
79.169

@<SCITEGIC>MOL_PROPERTY
E
SciTegic.value.DoubleValue
46.697

@<SCITEGIC>MOL_PROPERTY
-TS
SciTegic.value.DoubleValue
32.471

@<SCITEGIC>MOL_PROPERTY
U+W
SciTegic.value.DoubleValue
25.235

@<SCITEGIC>MOL_PROPERTY
U
SciTegic.value.DoubleValue
74.475

@<SCITEGIC>MOL_PROPERTY
W
SciTegic.value.DoubleValue
-49.239

@<SCITEGIC>MOL_PROPERTY
W(PB)
SciTegic.value.DoubleValue
-51.483

@<SCITEGIC>MOL_PROPERTY
W(SA)
SciTegic.value.DoubleValue
2.244

@<SCITEGIC>MOL_PROPERTY
Valence
SciTegic.value.DoubleValue
3.793

@<SCITEGIC>MOL_PROPERTY
Coulomb
SciTegic.value.DoubleValue
70.589

@<SCITEGIC>MOL_PROPERTY
VdW
SciTegic.value.DoubleValue
0.093

@<SCITEGIC>MOL_PROPERTY
VdW6
SciTegic.value.DoubleValue
-7.603

@<SCITEGIC>MOL_PROPERTY
VdW12
SciTegic.value.DoubleValue
7.696

@<SCITEGIC>MOL_PROPERTY
Bond
SciTegic.value.DoubleValue
0.211

@<SCITEGIC>MOL_PROPERTY
Angle
SciTegic.value.DoubleValue
1.117

@<SCITEGIC>MOL_PROPERTY
Pdih
SciTegic.value.DoubleValue
2.464

@<SCITEGIC>MOL_PROPERTY
Idih
SciTegic.value.DoubleValue
0.000

@<SCITEGIC>MOL_PROPERTY
Tether
SciTegic.value.DoubleValue
0.000

@<TRIPOS>MOLECULE
guest-s12_vm2.mol2 : vm2 ligand conformer 138
          26          25           1
SMALL
USER_CHARGES
 
@<TRIPOS>ATOM
       1    N1      19.338390   19.147923   25.387139 N.4        1 MOL1        -0.4857
       2    H1      18.948158   18.256160   25.729574 H          1 MOL1         0.3650
       3    H2      18.818158   19.364103   24.524983 H          1 MOL1         0.3650
       4    C1      20.814687   18.985878   25.079778 C.3        1 MOL1         0.0209
       5    H3      21.305513   18.713804   26.017667 H          1 MOL1         0.0967
       6    H4      21.209456   19.952912   24.758316 H          1 MOL1         0.0967
       7    C2      21.130812   17.912741   24.016690 C.3        1 MOL1        -0.1378
       8    H5      22.174493   17.601229   24.156411 H          1 MOL1         0.0993
       9    H6      20.522857   17.015677   24.194078 H          1 MOL1         0.0993
      10    C3      20.970613   18.394717   22.551980 C.3        1 MOL1        -0.1338
      11    H7      21.325352   17.594808   21.887447 H          1 MOL1         0.0993
      12    H8      21.635162   19.252488   22.382229 H          1 MOL1         0.0993
      13    C4      19.520075   18.768930   22.156533 C.3        1 MOL1        -0.1338
      14    H9      18.837572   17.973156   22.485524 H          1 MOL1         0.0993
      15    H10     19.215598   19.687681   22.673409 H          1 MOL1         0.0993
      16    C5      19.336331   18.973482   20.633289 C.3        1 MOL1        -0.1313
      17    H11     18.271283   19.148072   20.425708 H          1 MOL1         0.0993
      18    H12     19.605677   18.051732   20.098786 H          1 MOL1         0.0993
      19    C6      20.155272   20.157920   20.071332 C.3        1 MOL1        -0.2328
      20    H13     21.234184   19.977131   20.154458 H          1 MOL1         0.1004
      21    H14     19.920312   21.088747   20.603629 H          1 MOL1         0.1004
      22    H15     19.927649   20.312712   19.008720 H          1 MOL1         0.1004
      23    C7      19.141821   20.248409   26.420260 C.3        1 MOL1        -0.0781
      24    H16     19.533753   21.187568   26.023652 H          1 MOL1         0.0978
      25    H17     18.075676   20.353975   26.633104 H          1 MOL1         0.0978
      26    H18     19.675787   19.981505   27.334900 H          1 MOL1         0.0978
@<TRIPOS>BOND
    1     1     2    1
    2     1     3    1
    3     1     4    1
    4     4     5    1
    5     4     6    1
    6     4     7    1
    7     7     8    1
    8     7     9    1
    9     7    10    1
   10    10    11    1
   11    10    12    1
   12    10    13    1
   13    13    14    1
   14    13    15    1
   15    13    16    1
   16    16    17    1
   17    16    18    1
   18    16    19    1
   19    19    20    1
   20    19    21    1
   21    19    22    1
   22     1    23    1
   23    23    24    1
   24    23    25    1
   25    23    26    1
@<TRIPOS>SUBSTRUCTURE
       1 MOL1            1 RESIDUE      1      MOL     
@<SCITEGIC>MOL_PROPERTY
VM2 Rank
SciTegic.value.IntegerValue
138

@<SCITEGIC>MOL_PROPERTY
Conf_Id
SciTegic.value.IntegerValue
252

@<SCITEGIC>MOL_PROPERTY
Probability
SciTegic.value.DoubleValue
0.01

@<SCITEGIC>MOL_PROPERTY
Sum Probability
SciTegic.value.DoubleValue
99.69

@<SCITEGIC>MOL_PROPERTY
Delta G
SciTegic.value.DoubleValue
3.724

@<SCITEGIC>MOL_PROPERTY
G
SciTegic.value.DoubleValue
79.190

@<SCITEGIC>MOL_PROPERTY
E
SciTegic.value.DoubleValue
46.718

@<SCITEGIC>MOL_PROPERTY
-TS
SciTegic.value.DoubleValue
32.472

@<SCITEGIC>MOL_PROPERTY
U+W
SciTegic.value.DoubleValue
25.256

@<SCITEGIC>MOL_PROPERTY
U
SciTegic.value.DoubleValue
74.475

@<SCITEGIC>MOL_PROPERTY
W
SciTegic.value.DoubleValue
-49.218

@<SCITEGIC>MOL_PROPERTY
W(PB)
SciTegic.value.DoubleValue
-51.461

@<SCITEGIC>MOL_PROPERTY
W(SA)
SciTegic.value.DoubleValue
2.244

@<SCITEGIC>MOL_PROPERTY
Valence
SciTegic.value.DoubleValue
3.793

@<SCITEGIC>MOL_PROPERTY
Coulomb
SciTegic.value.DoubleValue
70.589

@<SCITEGIC>MOL_PROPERTY
VdW
SciTegic.value.DoubleValue
0.093

@<SCITEGIC>MOL_PROPERTY
VdW6
SciTegic.value.DoubleValue
-7.603

@<SCITEGIC>MOL_PROPERTY
VdW12
SciTegic.value.DoubleValue
7.696

@<SCITEGIC>MOL_PROPERTY
Bond
SciTegic.value.DoubleValue
0.211

@<SCITEGIC>MOL_PROPERTY
Angle
SciTegic.value.DoubleValue
1.117

@<SCITEGIC>MOL_PROPERTY
Pdih
SciTegic.value.DoubleValue
2.465

@<SCITEGIC>MOL_PROPERTY
Idih
SciTegic.value.DoubleValue
0.000

@<SCITEGIC>MOL_PROPERTY
Tether
SciTegic.value.DoubleValue
0.000

@<TRIPOS>MOLECULE
guest-s12_vm2.mol2 : vm2 ligand conformer 139
          26          25           1
SMALL
USER_CHARGES
 
@<TRIPOS>ATOM
       1    N1      19.542386   19.826516   25.487415 N.4        1 MOL1        -0.4857
       2    H1      18.895384   20.219880   26.189166 H          1 MOL1         0.3650
       3    H2      19.378156   20.377825   24.632716 H          1 MOL1         0.3650
       4    C1      19.195422   18.368702   25.238149 C.3        1 MOL1         0.0209
       5    H3      18.122565   18.319712   25.035427 H          1 MOL1         0.0967
       6    H4      19.382271   17.828728   26.169797 H          1 MOL1         0.0967
       7    C2      19.954129   17.669222   24.085582 C.3        1 MOL1        -0.1378
       8    H5      21.035787   17.677711   24.271773 H          1 MOL1         0.0993
       9    H6      19.659393   16.611623   24.103439 H          1 MOL1         0.0993
      10    C3      19.638590   18.231049   22.675116 C.3        1 MOL1        -0.1338
      11    H7      18.574774   18.497653   22.608679 H          1 MOL1         0.0993
      12    H8      19.796340   17.422053   21.949980 H          1 MOL1         0.0993
      13    C4      20.523954   19.437430   22.268234 C.3        1 MOL1        -0.1338
      14    H9      20.436105   20.237757   23.010550 H          1 MOL1         0.0993
      15    H10     21.580340   19.135342   22.269095 H          1 MOL1         0.0993
      16    C5      20.160280   20.027810   20.884016 C.3        1 MOL1        -0.1313
      17    H11     20.756775   20.936467   20.721339 H          1 MOL1         0.0993
      18    H12     19.108594   20.346787   20.880282 H          1 MOL1         0.0993
      19    C6      20.411794   19.052873   19.711018 C.3        1 MOL1        -0.2328
      20    H13     19.744781   18.183287   19.758225 H          1 MOL1         0.1004
      21    H14     21.448664   18.692483   19.711968 H          1 MOL1         0.1004
      22    H15     20.231899   19.553307   18.750746 H          1 MOL1         0.1004
      23    C7      20.981446   19.976398   25.967469 C.3        1 MOL1        -0.0781
      24    H16     21.115598   19.397718   26.883929 H          1 MOL1         0.0978
      25    H17     21.659738   19.609262   25.194647 H          1 MOL1         0.0978
      26    H18     21.184691   21.031364   26.164315 H          1 MOL1         0.0978
@<TRIPOS>BOND
    1     1     2    1
    2     1     3    1
    3     1     4    1
    4     4     5    1
    5     4     6    1
    6     4     7    1
    7     7     8    1
    8     7     9    1
    9     7    10    1
   10    10    11    1
   11    10    12    1
   12    10    13    1
   13    13    14    1
   14    13    15    1
   15    13    16    1
   16    16    17    1
   17    16    18    1
   18    16    19    1
   19    19    20    1
   20    19    21    1
   21    19    22    1
   22     1    23    1
   23    23    24    1
   24    23    25    1
   25    23    26    1
@<TRIPOS>SUBSTRUCTURE
       1 MOL1            1 RESIDUE      1      MOL     
@<SCITEGIC>MOL_PROPERTY
VM2 Rank
SciTegic.value.IntegerValue
139

@<SCITEGIC>MOL_PROPERTY
Conf_Id
SciTegic.value.IntegerValue
538

@<SCITEGIC>MOL_PROPERTY
Probability
SciTegic.value.DoubleValue
0.01

@<SCITEGIC>MOL_PROPERTY
Sum Probability
SciTegic.value.DoubleValue
99.70

@<SCITEGIC>MOL_PROPERTY
Delta G
SciTegic.value.DoubleValue
3.727

@<SCITEGIC>MOL_PROPERTY
G
SciTegic.value.DoubleValue
79.193

@<SCITEGIC>MOL_PROPERTY
E
SciTegic.value.DoubleValue
46.516

@<SCITEGIC>MOL_PROPERTY
-TS
SciTegic.value.DoubleValue
32.676

@<SCITEGIC>MOL_PROPERTY
U+W
SciTegic.value.DoubleValue
25.055

@<SCITEGIC>MOL_PROPERTY
U
SciTegic.value.DoubleValue
75.034

@<SCITEGIC>MOL_PROPERTY
W
SciTegic.value.DoubleValue
-49.979

@<SCITEGIC>MOL_PROPERTY
W(PB)
SciTegic.value.DoubleValue
-52.180

@<SCITEGIC>MOL_PROPERTY
W(SA)
SciTegic.value.DoubleValue
2.201

@<SCITEGIC>MOL_PROPERTY
Valence
SciTegic.value.DoubleValue
4.542

@<SCITEGIC>MOL_PROPERTY
Coulomb
SciTegic.value.DoubleValue
70.171

@<SCITEGIC>MOL_PROPERTY
VdW
SciTegic.value.DoubleValue
0.321

@<SCITEGIC>MOL_PROPERTY
VdW6
SciTegic.value.DoubleValue
-8.485

@<SCITEGIC>MOL_PROPERTY
VdW12
SciTegic.value.DoubleValue
8.806

@<SCITEGIC>MOL_PROPERTY
Bond
SciTegic.value.DoubleValue
0.270

@<SCITEGIC>MOL_PROPERTY
Angle
SciTegic.value.DoubleValue
1.463

@<SCITEGIC>MOL_PROPERTY
Pdih
SciTegic.value.DoubleValue
2.809

@<SCITEGIC>MOL_PROPERTY
Idih
SciTegic.value.DoubleValue
0.000

@<SCITEGIC>MOL_PROPERTY
Tether
SciTegic.value.DoubleValue
0.000

@<TRIPOS>MOLECULE
guest-s12_vm2.mol2 : vm2 ligand conformer 140
          26          25           1
SMALL
USER_CHARGES
 
@<TRIPOS>ATOM
       1    N1      19.729030   18.903366   25.932564 N.4        1 MOL1        -0.4857
       2    H1      20.444332   18.219283   26.221947 H          1 MOL1         0.3650
       3    H2      19.015794   18.871640   26.678017 H          1 MOL1         0.3650
       4    C1      19.094500   18.478967   24.616761 C.3        1 MOL1         0.0209
       5    H3      18.622069   19.352179   24.160787 H          1 MOL1         0.0967
       6    H4      18.302798   17.769779   24.871503 H          1 MOL1         0.0967
       7    C2      20.043132   17.785325   23.611778 C.3        1 MOL1        -0.1378
       8    H5      20.546206   16.948151   24.113085 H          1 MOL1         0.0993
       9    H6      19.433711   17.330724   22.820462 H          1 MOL1         0.0993
      10    C3      21.108060   18.706020   22.961895 C.3        1 MOL1        -0.1338
      11    H7      21.698313   18.115307   22.248944 H          1 MOL1         0.0993
      12    H8      21.825530   19.027978   23.727104 H          1 MOL1         0.0993
      13    C4      20.535736   19.956964   22.241400 C.3        1 MOL1        -0.1338
      14    H9      20.069039   20.623547   22.978034 H          1 MOL1         0.0993
      15    H10     21.371048   20.528323   21.813789 H          1 MOL1         0.0993
      16    C5      19.508223   19.658548   21.119994 C.3        1 MOL1        -0.1313
      17    H11     19.163060   20.613093   20.698790 H          1 MOL1         0.0993
      18    H12     18.615982   19.176123   21.541021 H          1 MOL1         0.0993
      19    C6      20.081183   18.789645   19.977358 C.3        1 MOL1        -0.2328
      20    H13     20.337473   17.782031   20.327335 H          1 MOL1         0.1004
      21    H14     20.983741   19.245210   19.549859 H          1 MOL1         0.1004
      22    H15     19.345197   18.681658   19.170209 H          1 MOL1         0.1004
      23    C7      20.308136   20.311165   25.855249 C.3        1 MOL1        -0.0781
      24    H16     21.103118   20.341324   25.109618 H          1 MOL1         0.0978
      25    H17     19.515109   21.009208   25.578585 H          1 MOL1         0.0978
      26    H18     20.712824   20.583704   26.832482 H          1 MOL1         0.0978
@<TRIPOS>BOND
    1     1     2    1
    2     1     3    1
    3     1     4    1
    4     4     5    1
    5     4     6    1
    6     4     7    1
    7     7     8    1
    8     7     9    1
    9     7    10    1
   10    10    11    1
   11    10    12    1
   12    10    13    1
   13    13    14    1
   14    13    15    1
   15    13    16    1
   16    16    17    1
   17    16    18    1
   18    16    19    1
   19    19    20    1
   20    19    21    1
   21    19    22    1
   22     1    23    1
   23    23    24    1
   24    23    25    1
   25    23    26    1
@<TRIPOS>SUBSTRUCTURE
       1 MOL1            1 RESIDUE      1      MOL     
@<SCITEGIC>MOL_PROPERTY
VM2 Rank
SciTegic.value.IntegerValue
140

@<SCITEGIC>MOL_PROPERTY
Conf_Id
SciTegic.value.IntegerValue
540

@<SCITEGIC>MOL_PROPERTY
Probability
SciTegic.value.DoubleValue
0.01

@<SCITEGIC>MOL_PROPERTY
Sum Probability
SciTegic.value.DoubleValue
99.72

@<SCITEGIC>MOL_PROPERTY
Delta G
SciTegic.value.DoubleValue
3.752

@<SCITEGIC>MOL_PROPERTY
G
SciTegic.value.DoubleValue
79.218

@<SCITEGIC>MOL_PROPERTY
E
SciTegic.value.DoubleValue
45.807

@<SCITEGIC>MOL_PROPERTY
-TS
SciTegic.value.DoubleValue
33.411

@<SCITEGIC>MOL_PROPERTY
U+W
SciTegic.value.DoubleValue
24.345

@<SCITEGIC>MOL_PROPERTY
U
SciTegic.value.DoubleValue
74.535

@<SCITEGIC>MOL_PROPERTY
W
SciTegic.value.DoubleValue
-50.189

@<SCITEGIC>MOL_PROPERTY
W(PB)
SciTegic.value.DoubleValue
-52.348

@<SCITEGIC>MOL_PROPERTY
W(SA)
SciTegic.value.DoubleValue
2.159

@<SCITEGIC>MOL_PROPERTY
Valence
SciTegic.value.DoubleValue
4.949

@<SCITEGIC>MOL_PROPERTY
Coulomb
SciTegic.value.DoubleValue
69.619

@<SCITEGIC>MOL_PROPERTY
VdW
SciTegic.value.DoubleValue
-0.033

@<SCITEGIC>MOL_PROPERTY
VdW6
SciTegic.value.DoubleValue
-9.810

@<SCITEGIC>MOL_PROPERTY
VdW12
SciTegic.value.DoubleValue
9.777

@<SCITEGIC>MOL_PROPERTY
Bond
SciTegic.value.DoubleValue
0.300

@<SCITEGIC>MOL_PROPERTY
Angle
SciTegic.value.DoubleValue
1.880

@<SCITEGIC>MOL_PROPERTY
Pdih
SciTegic.value.DoubleValue
2.768

@<SCITEGIC>MOL_PROPERTY
Idih
SciTegic.value.DoubleValue
0.000

@<SCITEGIC>MOL_PROPERTY
Tether
SciTegic.value.DoubleValue
0.000

@<TRIPOS>MOLECULE
guest-s12_vm2.mol2 : vm2 ligand conformer 141
          26          25           1
SMALL
USER_CHARGES
 
@<TRIPOS>ATOM
       1    N1      20.715496   18.987237   25.841780 N.4        1 MOL1        -0.4857
       2    H1      21.708235   18.981801   26.125000 H          1 MOL1         0.3650
       3    H2      20.267307   18.266028   26.427714 H          1 MOL1         0.3650
       4    C1      20.602737   18.616385   24.372977 C.3        1 MOL1         0.0209
       5    H3      21.208642   17.720235   24.217122 H          1 MOL1         0.0967
       6    H4      21.045667   19.426694   23.792154 H          1 MOL1         0.0967
       7    C2      19.162295   18.333320   23.894343 C.3        1 MOL1        -0.1378
       8    H5      18.749221   17.530030   24.518588 H          1 MOL1         0.0993
       9    H6      18.521577   19.209772   24.054780 H          1 MOL1         0.0993
      10    C3      19.087574   17.892309   22.410371 C.3        1 MOL1        -0.1338
      11    H7      18.185947   17.276494   22.287060 H          1 MOL1         0.0993
      12    H8      19.928225   17.228892   22.166984 H          1 MOL1         0.0993
      13    C4      18.993887   19.057217   21.387547 C.3        1 MOL1        -0.1338
      14    H9      18.844832   18.629767   20.386380 H          1 MOL1         0.0993
      15    H10     18.087576   19.641748   21.597606 H          1 MOL1         0.0993
      16    C5      20.204831   20.021651   21.335306 C.3        1 MOL1        -0.1313
      17    H11     20.308133   20.555102   22.288667 H          1 MOL1         0.0993
      18    H12     19.997581   20.797704   20.585261 H          1 MOL1         0.0993
      19    C6      21.532644   19.322284   20.964099 C.3        1 MOL1        -0.2328
      20    H13     21.445705   18.799856   20.002624 H          1 MOL1         0.1004
      21    H14     21.833884   18.590604   21.723058 H          1 MOL1         0.1004
      22    H15     22.342361   20.057783   20.873358 H          1 MOL1         0.1004
      23    C7      20.108536   20.359597   26.110576 C.3        1 MOL1        -0.0781
      24    H16     20.239576   20.607349   27.166285 H          1 MOL1         0.0978
      25    H17     20.615188   21.103392   25.491811 H          1 MOL1         0.0978
      26    H18     19.044195   20.338476   25.868279 H          1 MOL1         0.0978
@<TRIPOS>BOND
    1     1     2    1
    2     1     3    1
    3     1     4    1
    4     4     5    1
    5     4     6    1
    6     4     7    1
    7     7     8    1
    8     7     9    1
    9     7    10    1
   10    10    11    1
   11    10    12    1
   12    10    13    1
   13    13    14    1
   14    13    15    1
   15    13    16    1
   16    16    17    1
   17    16    18    1
   18    16    19    1
   19    19    20    1
   20    19    21    1
   21    19    22    1
   22     1    23    1
   23    23    24    1
   24    23    25    1
   25    23    26    1
@<TRIPOS>SUBSTRUCTURE
       1 MOL1            1 RESIDUE      1      MOL     
@<SCITEGIC>MOL_PROPERTY
VM2 Rank
SciTegic.value.IntegerValue
141

@<SCITEGIC>MOL_PROPERTY
Conf_Id
SciTegic.value.IntegerValue
1105

@<SCITEGIC>MOL_PROPERTY
Probability
SciTegic.value.DoubleValue
0.01

@<SCITEGIC>MOL_PROPERTY
Sum Probability
SciTegic.value.DoubleValue
99.73

@<SCITEGIC>MOL_PROPERTY
Delta G
SciTegic.value.DoubleValue
3.754

@<SCITEGIC>MOL_PROPERTY
G
SciTegic.value.DoubleValue
79.220

@<SCITEGIC>MOL_PROPERTY
E
SciTegic.value.DoubleValue
46.085

@<SCITEGIC>MOL_PROPERTY
-TS
SciTegic.value.DoubleValue
33.135

@<SCITEGIC>MOL_PROPERTY
U+W
SciTegic.value.DoubleValue
24.623

@<SCITEGIC>MOL_PROPERTY
U
SciTegic.value.DoubleValue
74.631

@<SCITEGIC>MOL_PROPERTY
W
SciTegic.value.DoubleValue
-50.008

@<SCITEGIC>MOL_PROPERTY
W(PB)
SciTegic.value.DoubleValue
-52.190

@<SCITEGIC>MOL_PROPERTY
W(SA)
SciTegic.value.DoubleValue
2.182

@<SCITEGIC>MOL_PROPERTY
Valence
SciTegic.value.DoubleValue
4.880

@<SCITEGIC>MOL_PROPERTY
Coulomb
SciTegic.value.DoubleValue
69.648

@<SCITEGIC>MOL_PROPERTY
VdW
SciTegic.value.DoubleValue
0.103

@<SCITEGIC>MOL_PROPERTY
VdW6
SciTegic.value.DoubleValue
-8.910

@<SCITEGIC>MOL_PROPERTY
VdW12
SciTegic.value.DoubleValue
9.013

@<SCITEGIC>MOL_PROPERTY
Bond
SciTegic.value.DoubleValue
0.274

@<SCITEGIC>MOL_PROPERTY
Angle
SciTegic.value.DoubleValue
1.756

@<SCITEGIC>MOL_PROPERTY
Pdih
SciTegic.value.DoubleValue
2.850

@<SCITEGIC>MOL_PROPERTY
Idih
SciTegic.value.DoubleValue
0.000

@<SCITEGIC>MOL_PROPERTY
Tether
SciTegic.value.DoubleValue
0.000

@<TRIPOS>MOLECULE
guest-s12_vm2.mol2 : vm2 ligand conformer 142
          26          25           1
SMALL
USER_CHARGES
 
@<TRIPOS>ATOM
       1    N1      20.240459   19.898426   25.512232 N.4        1 MOL1        -0.4857
       2    H1      20.348423   20.477866   24.667240 H          1 MOL1         0.3650
       3    H2      20.742955   20.410203   26.254781 H          1 MOL1         0.3650
       4    C1      20.893732   18.543725   25.298312 C.3        1 MOL1         0.0209
       5    H3      20.756047   17.970255   26.218435 H          1 MOL1         0.0967
       6    H4      21.965572   18.715807   25.171570 H          1 MOL1         0.0967
       7    C2      20.376040   17.712732   24.100496 C.3        1 MOL1        -0.1378
       8    H5      20.878023   16.737234   24.146575 H          1 MOL1         0.0993
       9    H6      19.305002   17.499379   24.210402 H          1 MOL1         0.0993
      10    C3      20.668516   18.337213   22.711569 C.3        1 MOL1        -0.1338
      11    H7      20.729769   17.518301   21.983001 H          1 MOL1         0.0993
      12    H8      21.657822   18.815155   22.717788 H          1 MOL1         0.0993
      13    C4      19.586891   19.341138   22.235118 C.3        1 MOL1        -0.1338
      14    H9      18.616580   18.830525   22.164555 H          1 MOL1         0.0993
      15    H10     19.458169   20.137382   22.975858 H          1 MOL1         0.0993
      16    C5      19.918524   20.002845   20.875326 C.3        1 MOL1        -0.1313
      17    H11     20.881051   20.528991   20.942538 H          1 MOL1         0.0993
      18    H12     19.162578   20.772375   20.664855 H          1 MOL1         0.0993
      19    C6      19.952825   19.005414   19.694802 C.3        1 MOL1        -0.2328
      20    H13     19.013368   18.441777   19.626134 H          1 MOL1         0.1004
      21    H14     20.777727   18.289266   19.794710 H          1 MOL1         0.1004
      22    H15     20.093726   19.538713   18.745771 H          1 MOL1         0.1004
      23    C7      18.771012   19.748507   25.889146 C.3        1 MOL1        -0.0781
      24    H16     18.237581   19.256628   25.073285 H          1 MOL1         0.0978
      25    H17     18.693666   19.147882   26.798010 H          1 MOL1         0.0978
      26    H18     18.343859   20.738480   26.063806 H          1 MOL1         0.0978
@<TRIPOS>BOND
    1     1     2    1
    2     1     3    1
    3     1     4    1
    4     4     5    1
    5     4     6    1
    6     4     7    1
    7     7     8    1
    8     7     9    1
    9     7    10    1
   10    10    11    1
   11    10    12    1
   12    10    13    1
   13    13    14    1
   14    13    15    1
   15    13    16    1
   16    16    17    1
   17    16    18    1
   18    16    19    1
   19    19    20    1
   20    19    21    1
   21    19    22    1
   22     1    23    1
   23    23    24    1
   24    23    25    1
   25    23    26    1
@<TRIPOS>SUBSTRUCTURE
       1 MOL1            1 RESIDUE      1      MOL     
@<SCITEGIC>MOL_PROPERTY
VM2 Rank
SciTegic.value.IntegerValue
142

@<SCITEGIC>MOL_PROPERTY
Conf_Id
SciTegic.value.IntegerValue
746

@<SCITEGIC>MOL_PROPERTY
Probability
SciTegic.value.DoubleValue
0.01

@<SCITEGIC>MOL_PROPERTY
Sum Probability
SciTegic.value.DoubleValue
99.74

@<SCITEGIC>MOL_PROPERTY
Delta G
SciTegic.value.DoubleValue
3.765

@<SCITEGIC>MOL_PROPERTY
G
SciTegic.value.DoubleValue
79.231

@<SCITEGIC>MOL_PROPERTY
E
SciTegic.value.DoubleValue
46.555

@<SCITEGIC>MOL_PROPERTY
-TS
SciTegic.value.DoubleValue
32.676

@<SCITEGIC>MOL_PROPERTY
U+W
SciTegic.value.DoubleValue
25.093

@<SCITEGIC>MOL_PROPERTY
U
SciTegic.value.DoubleValue
75.034

@<SCITEGIC>MOL_PROPERTY
W
SciTegic.value.DoubleValue
-49.940

@<SCITEGIC>MOL_PROPERTY
W(PB)
SciTegic.value.DoubleValue
-52.155

@<SCITEGIC>MOL_PROPERTY
W(SA)
SciTegic.value.DoubleValue
2.215

@<SCITEGIC>MOL_PROPERTY
Valence
SciTegic.value.DoubleValue
4.541

@<SCITEGIC>MOL_PROPERTY
Coulomb
SciTegic.value.DoubleValue
70.171

@<SCITEGIC>MOL_PROPERTY
VdW
SciTegic.value.DoubleValue
0.321

@<SCITEGIC>MOL_PROPERTY
VdW6
SciTegic.value.DoubleValue
-8.485

@<SCITEGIC>MOL_PROPERTY
VdW12
SciTegic.value.DoubleValue
8.806

@<SCITEGIC>MOL_PROPERTY
Bond
SciTegic.value.DoubleValue
0.270

@<SCITEGIC>MOL_PROPERTY
Angle
SciTegic.value.DoubleValue
1.463

@<SCITEGIC>MOL_PROPERTY
Pdih
SciTegic.value.DoubleValue
2.808

@<SCITEGIC>MOL_PROPERTY
Idih
SciTegic.value.DoubleValue
0.000

@<SCITEGIC>MOL_PROPERTY
Tether
SciTegic.value.DoubleValue
0.000

@<TRIPOS>MOLECULE
guest-s12_vm2.mol2 : vm2 ligand conformer 143
          26          25           1
SMALL
USER_CHARGES
 
@<TRIPOS>ATOM
       1    N1      19.240841   18.835797   25.789567 N.4        1 MOL1        -0.4857
       2    H1      19.783881   18.216279   26.410568 H          1 MOL1         0.3650
       3    H2      18.252508   18.626999   26.002585 H          1 MOL1         0.3650
       4    C1      19.529072   18.506226   24.334941 C.3        1 MOL1         0.0209
       5    H3      18.972700   19.213995   23.718777 H          1 MOL1         0.0967
       6    H4      19.130059   17.506925   24.143411 H          1 MOL1         0.0967
       7    C2      21.026891   18.524833   23.960395 C.3        1 MOL1        -0.1378
       8    H5      21.463559   19.511903   24.158994 H          1 MOL1         0.0993
       9    H6      21.549647   17.817629   24.617798 H          1 MOL1         0.0993
      10    C3      21.293301   18.118828   22.488515 C.3        1 MOL1        -0.1338
      11    H7      20.623953   17.300356   22.191647 H          1 MOL1         0.0993
      12    H8      22.307525   17.699735   22.433085 H          1 MOL1         0.0993
      13    C4      21.219993   19.285810   21.466392 C.3        1 MOL1        -0.1338
      14    H9      21.971792   20.040621   21.735204 H          1 MOL1         0.0993
      15    H10     21.522481   18.904711   20.481236 H          1 MOL1         0.0993
      16    C5      19.845188   19.984701   21.322492 C.3        1 MOL1        -0.1313
      17    H11     19.942614   20.792036   20.583238 H          1 MOL1         0.0993
      18    H12     19.569218   20.479213   22.262404 H          1 MOL1         0.0993
      19    C6      18.716326   19.033037   20.864232 C.3        1 MOL1        -0.2328
      20    H13     18.974614   18.546102   19.914965 H          1 MOL1         0.1004
      21    H14     17.782533   19.589470   20.711760 H          1 MOL1         0.1004
      22    H15     18.517523   18.249974   21.605451 H          1 MOL1         0.1004
      23    C7      19.536389   20.300767   26.090467 C.3        1 MOL1        -0.0781
      24    H16     18.933967   20.930781   25.432466 H          1 MOL1         0.0978
      25    H17     19.284206   20.509092   27.132616 H          1 MOL1         0.0978
      26    H18     20.597177   20.497790   25.923472 H          1 MOL1         0.0978
@<TRIPOS>BOND
    1     1     2    1
    2     1     3    1
    3     1     4    1
    4     4     5    1
    5     4     6    1
    6     4     7    1
    7     7     8    1
    8     7     9    1
    9     7    10    1
   10    10    11    1
   11    10    12    1
   12    10    13    1
   13    13    14    1
   14    13    15    1
   15    13    16    1
   16    16    17    1
   17    16    18    1
   18    16    19    1
   19    19    20    1
   20    19    21    1
   21    19    22    1
   22     1    23    1
   23    23    24    1
   24    23    25    1
   25    23    26    1
@<TRIPOS>SUBSTRUCTURE
       1 MOL1            1 RESIDUE      1      MOL     
@<SCITEGIC>MOL_PROPERTY
VM2 Rank
SciTegic.value.IntegerValue
143

@<SCITEGIC>MOL_PROPERTY
Conf_Id
SciTegic.value.IntegerValue
576

@<SCITEGIC>MOL_PROPERTY
Probability
SciTegic.value.DoubleValue
0.01

@<SCITEGIC>MOL_PROPERTY
Sum Probability
SciTegic.value.DoubleValue
99.76

@<SCITEGIC>MOL_PROPERTY
Delta G
SciTegic.value.DoubleValue
3.788

@<SCITEGIC>MOL_PROPERTY
G
SciTegic.value.DoubleValue
79.254

@<SCITEGIC>MOL_PROPERTY
E
SciTegic.value.DoubleValue
46.119

@<SCITEGIC>MOL_PROPERTY
-TS
SciTegic.value.DoubleValue
33.135

@<SCITEGIC>MOL_PROPERTY
U+W
SciTegic.value.DoubleValue
24.657

@<SCITEGIC>MOL_PROPERTY
U
SciTegic.value.DoubleValue
74.631

@<SCITEGIC>MOL_PROPERTY
W
SciTegic.value.DoubleValue
-49.973

@<SCITEGIC>MOL_PROPERTY
W(PB)
SciTegic.value.DoubleValue
-52.194

@<SCITEGIC>MOL_PROPERTY
W(SA)
SciTegic.value.DoubleValue
2.220

@<SCITEGIC>MOL_PROPERTY
Valence
SciTegic.value.DoubleValue
4.880

@<SCITEGIC>MOL_PROPERTY
Coulomb
SciTegic.value.DoubleValue
69.648

@<SCITEGIC>MOL_PROPERTY
VdW
SciTegic.value.DoubleValue
0.103

@<SCITEGIC>MOL_PROPERTY
VdW6
SciTegic.value.DoubleValue
-8.910

@<SCITEGIC>MOL_PROPERTY
VdW12
SciTegic.value.DoubleValue
9.013

@<SCITEGIC>MOL_PROPERTY
Bond
SciTegic.value.DoubleValue
0.274

@<SCITEGIC>MOL_PROPERTY
Angle
SciTegic.value.DoubleValue
1.756

@<SCITEGIC>MOL_PROPERTY
Pdih
SciTegic.value.DoubleValue
2.850

@<SCITEGIC>MOL_PROPERTY
Idih
SciTegic.value.DoubleValue
0.000

@<SCITEGIC>MOL_PROPERTY
Tether
SciTegic.value.DoubleValue
0.000

@<TRIPOS>MOLECULE
guest-s12_vm2.mol2 : vm2 ligand conformer 144
          26          25           1
SMALL
USER_CHARGES
 
@<TRIPOS>ATOM
       1    N1      20.285708   19.128811   25.933060 N.4        1 MOL1        -0.4857
       2    H1      20.971216   19.820873   25.594981 H          1 MOL1         0.3650
       3    H2      20.827690   18.270785   26.119358 H          1 MOL1         0.3650
       4    C1      19.241933   18.864969   24.864980 C.3        1 MOL1         0.0209
       5    H3      18.697276   19.795880   24.688385 H          1 MOL1         0.0967
       6    H4      18.539558   18.129588   25.265600 H          1 MOL1         0.0967
       7    C2      19.823098   18.344431   23.535591 C.3        1 MOL1        -0.1378
       8    H5      20.374274   17.412548   23.718796 H          1 MOL1         0.0993
       9    H6      18.987909   18.081973   22.876674 H          1 MOL1         0.0993
      10    C3      20.749008   19.377185   22.843396 C.3        1 MOL1        -0.1338
      11    H7      21.616786   19.558235   23.491556 H          1 MOL1         0.0993
      12    H8      20.236449   20.344015   22.743439 H          1 MOL1         0.0993
      13    C4      21.269651   18.906593   21.459994 C.3        1 MOL1        -0.1338
      14    H9      22.297798   19.274717   21.337771 H          1 MOL1         0.0993
      15    H10     21.343379   17.810683   21.432294 H          1 MOL1         0.0993
      16    C5      20.445952   19.416459   20.249571 C.3        1 MOL1        -0.1313
      17    H11     20.942503   19.086410   19.326338 H          1 MOL1         0.0993
      18    H12     20.464564   20.515090   20.227942 H          1 MOL1         0.0993
      19    C6      18.980729   18.928698   20.224796 C.3        1 MOL1        -0.2328
      20    H13     18.399739   19.368989   21.044451 H          1 MOL1         0.1004
      21    H14     18.925430   17.835283   20.303547 H          1 MOL1         0.1004
      22    H15     18.494957   19.222117   19.285212 H          1 MOL1         0.1004
      23    C7      19.611920   19.622854   27.205612 C.3        1 MOL1        -0.0781
      24    H16     19.071838   20.547460   26.990316 H          1 MOL1         0.0978
      25    H17     18.914668   18.861243   27.561590 H          1 MOL1         0.0978
      26    H18     20.374144   19.809159   27.965495 H          1 MOL1         0.0978
@<TRIPOS>BOND
    1     1     2    1
    2     1     3    1
    3     1     4    1
    4     4     5    1
    5     4     6    1
    6     4     7    1
    7     7     8    1
    8     7     9    1
    9     7    10    1
   10    10    11    1
   11    10    12    1
   12    10    13    1
   13    13    14    1
   14    13    15    1
   15    13    16    1
   16    16    17    1
   17    16    18    1
   18    16    19    1
   19    19    20    1
   20    19    21    1
   21    19    22    1
   22     1    23    1
   23    23    24    1
   24    23    25    1
   25    23    26    1
@<TRIPOS>SUBSTRUCTURE
       1 MOL1            1 RESIDUE      1      MOL     
@<SCITEGIC>MOL_PROPERTY
VM2 Rank
SciTegic.value.IntegerValue
144

@<SCITEGIC>MOL_PROPERTY
Conf_Id
SciTegic.value.IntegerValue
711

@<SCITEGIC>MOL_PROPERTY
Probability
SciTegic.value.DoubleValue
0.01

@<SCITEGIC>MOL_PROPERTY
Sum Probability
SciTegic.value.DoubleValue
99.77

@<SCITEGIC>MOL_PROPERTY
Delta G
SciTegic.value.DoubleValue
3.795

@<SCITEGIC>MOL_PROPERTY
G
SciTegic.value.DoubleValue
79.261

@<SCITEGIC>MOL_PROPERTY
E
SciTegic.value.DoubleValue
46.643

@<SCITEGIC>MOL_PROPERTY
-TS
SciTegic.value.DoubleValue
32.618

@<SCITEGIC>MOL_PROPERTY
U+W
SciTegic.value.DoubleValue
25.181

@<SCITEGIC>MOL_PROPERTY
U
SciTegic.value.DoubleValue
74.516

@<SCITEGIC>MOL_PROPERTY
W
SciTegic.value.DoubleValue
-49.336

@<SCITEGIC>MOL_PROPERTY
W(PB)
SciTegic.value.DoubleValue
-51.569

@<SCITEGIC>MOL_PROPERTY
W(SA)
SciTegic.value.DoubleValue
2.234

@<SCITEGIC>MOL_PROPERTY
Valence
SciTegic.value.DoubleValue
4.842

@<SCITEGIC>MOL_PROPERTY
Coulomb
SciTegic.value.DoubleValue
69.332

@<SCITEGIC>MOL_PROPERTY
VdW
SciTegic.value.DoubleValue
0.342

@<SCITEGIC>MOL_PROPERTY
VdW6
SciTegic.value.DoubleValue
-7.369

@<SCITEGIC>MOL_PROPERTY
VdW12
SciTegic.value.DoubleValue
7.710

@<SCITEGIC>MOL_PROPERTY
Bond
SciTegic.value.DoubleValue
0.232

@<SCITEGIC>MOL_PROPERTY
Angle
SciTegic.value.DoubleValue
1.153

@<SCITEGIC>MOL_PROPERTY
Pdih
SciTegic.value.DoubleValue
3.457

@<SCITEGIC>MOL_PROPERTY
Idih
SciTegic.value.DoubleValue
0.000

@<SCITEGIC>MOL_PROPERTY
Tether
SciTegic.value.DoubleValue
0.000

@<TRIPOS>MOLECULE
guest-s12_vm2.mol2 : vm2 ligand conformer 145
          26          25           1
SMALL
USER_CHARGES
 
@<TRIPOS>ATOM
       1    N1      20.631563   18.988386   25.494224 N.4        1 MOL1        -0.4857
       2    H1      21.213547   19.296475   24.702277 H          1 MOL1         0.3650
       3    H2      20.951214   18.032650   25.716077 H          1 MOL1         0.3650
       4    C1      19.168872   18.967550   25.092881 C.3        1 MOL1         0.0209
       5    H3      18.844621   19.994785   24.908529 H          1 MOL1         0.0967
       6    H4      18.611061   18.584445   25.951164 H          1 MOL1         0.0967
       7    C2      18.859702   18.091829   23.860335 C.3        1 MOL1        -0.1378
       8    H5      19.440260   17.160784   23.904353 H          1 MOL1         0.0993
       9    H6      17.805184   17.791378   23.920085 H          1 MOL1         0.0993
      10    C3      19.074821   18.798864   22.497326 C.3        1 MOL1        -0.1338
      11    H7      18.426322   19.683967   22.439585 H          1 MOL1         0.0993
      12    H8      18.730500   18.115865   21.710500 H          1 MOL1         0.0993
      13    C4      20.540524   19.215876   22.215559 C.3        1 MOL1        -0.1338
      14    H9      20.848536   19.971785   22.948266 H          1 MOL1         0.0993
      15    H10     21.207648   18.352587   22.345665 H          1 MOL1         0.0993
      16    C5      20.749079   19.820007   20.805297 C.3        1 MOL1        -0.1313
      17    H11     21.768618   20.225997   20.744768 H          1 MOL1         0.0993
      18    H12     20.070876   20.672689   20.660875 H          1 MOL1         0.0993
      19    C6      20.556037   18.799582   19.659984 C.3        1 MOL1        -0.2328
      20    H13     19.516311   18.457132   19.592410 H          1 MOL1         0.1004
      21    H14     21.199467   17.921369   19.800396 H          1 MOL1         0.1004
      22    H15     20.815235   19.253318   18.694647 H          1 MOL1         0.1004
      23    C7      20.827402   19.907906   26.691396 C.3        1 MOL1        -0.0781
      24    H16     21.883329   19.912526   26.970880 H          1 MOL1         0.0978
      25    H17     20.512164   20.918692   26.423318 H          1 MOL1         0.0978
      26    H18     20.226416   19.542233   27.526875 H          1 MOL1         0.0978
@<TRIPOS>BOND
    1     1     2    1
    2     1     3    1
    3     1     4    1
    4     4     5    1
    5     4     6    1
    6     4     7    1
    7     7     8    1
    8     7     9    1
    9     7    10    1
   10    10    11    1
   11    10    12    1
   12    10    13    1
   13    13    14    1
   14    13    15    1
   15    13    16    1
   16    16    17    1
   17    16    18    1
   18    16    19    1
   19    19    20    1
   20    19    21    1
   21    19    22    1
   22     1    23    1
   23    23    24    1
   24    23    25    1
   25    23    26    1
@<TRIPOS>SUBSTRUCTURE
       1 MOL1            1 RESIDUE      1      MOL     
@<SCITEGIC>MOL_PROPERTY
VM2 Rank
SciTegic.value.IntegerValue
145

@<SCITEGIC>MOL_PROPERTY
Conf_Id
SciTegic.value.IntegerValue
518

@<SCITEGIC>MOL_PROPERTY
Probability
SciTegic.value.DoubleValue
0.01

@<SCITEGIC>MOL_PROPERTY
Sum Probability
SciTegic.value.DoubleValue
99.78

@<SCITEGIC>MOL_PROPERTY
Delta G
SciTegic.value.DoubleValue
3.822

@<SCITEGIC>MOL_PROPERTY
G
SciTegic.value.DoubleValue
79.288

@<SCITEGIC>MOL_PROPERTY
E
SciTegic.value.DoubleValue
46.913

@<SCITEGIC>MOL_PROPERTY
-TS
SciTegic.value.DoubleValue
32.375

@<SCITEGIC>MOL_PROPERTY
U+W
SciTegic.value.DoubleValue
25.451

@<SCITEGIC>MOL_PROPERTY
U
SciTegic.value.DoubleValue
74.712

@<SCITEGIC>MOL_PROPERTY
W
SciTegic.value.DoubleValue
-49.261

@<SCITEGIC>MOL_PROPERTY
W(PB)
SciTegic.value.DoubleValue
-51.535

@<SCITEGIC>MOL_PROPERTY
W(SA)
SciTegic.value.DoubleValue
2.274

@<SCITEGIC>MOL_PROPERTY
Valence
SciTegic.value.DoubleValue
4.001

@<SCITEGIC>MOL_PROPERTY
Coulomb
SciTegic.value.DoubleValue
70.535

@<SCITEGIC>MOL_PROPERTY
VdW
SciTegic.value.DoubleValue
0.175

@<SCITEGIC>MOL_PROPERTY
VdW6
SciTegic.value.DoubleValue
-7.476

@<SCITEGIC>MOL_PROPERTY
VdW12
SciTegic.value.DoubleValue
7.651

@<SCITEGIC>MOL_PROPERTY
Bond
SciTegic.value.DoubleValue
0.220

@<SCITEGIC>MOL_PROPERTY
Angle
SciTegic.value.DoubleValue
1.251

@<SCITEGIC>MOL_PROPERTY
Pdih
SciTegic.value.DoubleValue
2.531

@<SCITEGIC>MOL_PROPERTY
Idih
SciTegic.value.DoubleValue
0.000

@<SCITEGIC>MOL_PROPERTY
Tether
SciTegic.value.DoubleValue
0.000

@<TRIPOS>MOLECULE
guest-s12_vm2.mol2 : vm2 ligand conformer 146
          26          25           1
SMALL
USER_CHARGES
 
@<TRIPOS>ATOM
       1    N1      20.517392   19.386192   25.725164 N.4        1 MOL1        -0.4857
       2    H1      20.336087   20.347108   25.398066 H          1 MOL1         0.3650
       3    H2      21.505606   19.197669   25.496132 H          1 MOL1         0.3650
       4    C1      19.616721   18.409250   24.994305 C.3        1 MOL1         0.0209
       5    H3      18.581843   18.645587   25.254304 H          1 MOL1         0.0967
       6    H4      19.842641   17.407830   25.369434 H          1 MOL1         0.0967
       7    C2      19.784481   18.431469   23.462298 C.3        1 MOL1        -0.1378
       8    H5      20.826156   18.192728   23.214410 H          1 MOL1         0.0993
       9    H6      19.161544   17.635885   23.032628 H          1 MOL1         0.0993
      10    C3      19.385139   19.791268   22.839974 C.3        1 MOL1        -0.1338
      11    H7      20.087805   20.570004   23.165430 H          1 MOL1         0.0993
      12    H8      18.400053   20.084660   23.228884 H          1 MOL1         0.0993
      13    C4      19.313292   19.788504   21.290889 C.3        1 MOL1        -0.1338
      14    H9      18.540095   19.086857   20.948731 H          1 MOL1         0.0993
      15    H10     18.969064   20.783166   20.975169 H          1 MOL1         0.0993
      16    C5      20.658131   19.495708   20.576356 C.3        1 MOL1        -0.1313
      17    H11     21.500742   19.844964   21.189229 H          1 MOL1         0.0993
      18    H12     20.695837   20.084224   19.648869 H          1 MOL1         0.0993
      19    C6      20.846179   18.006790   20.201820 C.3        1 MOL1        -0.2328
      20    H13     20.853187   17.356135   21.082903 H          1 MOL1         0.1004
      21    H14     21.798048   17.861218   19.674888 H          1 MOL1         0.1004
      22    H15     20.042671   17.665581   19.536257 H          1 MOL1         0.1004
      23    C7      20.286665   19.280820   27.226193 C.3        1 MOL1        -0.0781
      24    H16     20.514665   18.264205   27.553973 H          1 MOL1         0.0978
      25    H17     20.940373   19.989320   27.739817 H          1 MOL1         0.0978
      26    H18     19.242915   19.515375   27.446431 H          1 MOL1         0.0978
@<TRIPOS>BOND
    1     1     2    1
    2     1     3    1
    3     1     4    1
    4     4     5    1
    5     4     6    1
    6     4     7    1
    7     7     8    1
    8     7     9    1
    9     7    10    1
   10    10    11    1
   11    10    12    1
   12    10    13    1
   13    13    14    1
   14    13    15    1
   15    13    16    1
   16    16    17    1
   17    16    18    1
   18    16    19    1
   19    19    20    1
   20    19    21    1
   21    19    22    1
   22     1    23    1
   23    23    24    1
   24    23    25    1
   25    23    26    1
@<TRIPOS>SUBSTRUCTURE
       1 MOL1            1 RESIDUE      1      MOL     
@<SCITEGIC>MOL_PROPERTY
VM2 Rank
SciTegic.value.IntegerValue
146

@<SCITEGIC>MOL_PROPERTY
Conf_Id
SciTegic.value.IntegerValue
133

@<SCITEGIC>MOL_PROPERTY
Probability
SciTegic.value.DoubleValue
0.01

@<SCITEGIC>MOL_PROPERTY
Sum Probability
SciTegic.value.DoubleValue
99.79

@<SCITEGIC>MOL_PROPERTY
Delta G
SciTegic.value.DoubleValue
3.832

@<SCITEGIC>MOL_PROPERTY
G
SciTegic.value.DoubleValue
79.298

@<SCITEGIC>MOL_PROPERTY
E
SciTegic.value.DoubleValue
46.713

@<SCITEGIC>MOL_PROPERTY
-TS
SciTegic.value.DoubleValue
32.586

@<SCITEGIC>MOL_PROPERTY
U+W
SciTegic.value.DoubleValue
25.251

@<SCITEGIC>MOL_PROPERTY
U
SciTegic.value.DoubleValue
74.608

@<SCITEGIC>MOL_PROPERTY
W
SciTegic.value.DoubleValue
-49.358

@<SCITEGIC>MOL_PROPERTY
W(PB)
SciTegic.value.DoubleValue
-51.611

@<SCITEGIC>MOL_PROPERTY
W(SA)
SciTegic.value.DoubleValue
2.254

@<SCITEGIC>MOL_PROPERTY
Valence
SciTegic.value.DoubleValue
4.823

@<SCITEGIC>MOL_PROPERTY
Coulomb
SciTegic.value.DoubleValue
69.470

@<SCITEGIC>MOL_PROPERTY
VdW
SciTegic.value.DoubleValue
0.316

@<SCITEGIC>MOL_PROPERTY
VdW6
SciTegic.value.DoubleValue
-7.375

@<SCITEGIC>MOL_PROPERTY
VdW12
SciTegic.value.DoubleValue
7.690

@<SCITEGIC>MOL_PROPERTY
Bond
SciTegic.value.DoubleValue
0.227

@<SCITEGIC>MOL_PROPERTY
Angle
SciTegic.value.DoubleValue
1.209

@<SCITEGIC>MOL_PROPERTY
Pdih
SciTegic.value.DoubleValue
3.386

@<SCITEGIC>MOL_PROPERTY
Idih
SciTegic.value.DoubleValue
0.000

@<SCITEGIC>MOL_PROPERTY
Tether
SciTegic.value.DoubleValue
0.000

@<TRIPOS>MOLECULE
guest-s12_vm2.mol2 : vm2 ligand conformer 147
          26          25           1
SMALL
USER_CHARGES
 
@<TRIPOS>ATOM
       1    N1      19.625517   19.061267   25.909665 N.4        1 MOL1        -0.4857
       2    H1      19.256601   18.110059   26.063821 H          1 MOL1         0.3650
       3    H2      18.839581   19.602727   25.519418 H          1 MOL1         0.3650
       4    C1      20.773227   19.021540   24.919180 C.3        1 MOL1         0.0209
       5    H3      21.579998   18.440551   25.373256 H          1 MOL1         0.0967
       6    H4      21.129388   20.044589   24.774431 H          1 MOL1         0.0967
       7    C2      20.403820   18.403718   23.556160 C.3        1 MOL1        -0.1378
       8    H5      21.318852   18.320282   22.959209 H          1 MOL1         0.0993
       9    H6      20.041039   17.378344   23.707033 H          1 MOL1         0.0993
      10    C3      19.338951   19.232806   22.793472 C.3        1 MOL1        -0.1338
      11    H7      19.651036   20.284035   22.722837 H          1 MOL1         0.0993
      12    H8      18.409256   19.229854   23.377927 H          1 MOL1         0.0993
      13    C4      19.022507   18.676684   21.380348 C.3        1 MOL1        -0.1338
      14    H9      19.174077   17.588740   21.355323 H          1 MOL1         0.0993
      15    H10     17.952302   18.830144   21.183745 H          1 MOL1         0.0993
      16    C5      19.808825   19.351367   20.227059 C.3        1 MOL1        -0.1313
      17    H11     19.569972   20.423661   20.196399 H          1 MOL1         0.0993
      18    H12     19.455229   18.934429   19.273651 H          1 MOL1         0.0993
      19    C6      21.340474   19.170198   20.308499 C.3        1 MOL1        -0.2328
      20    H13     21.610106   18.110013   20.398622 H          1 MOL1         0.1004
      21    H14     21.761517   19.712886   21.163749 H          1 MOL1         0.1004
      22    H15     21.821493   19.562654   19.403244 H          1 MOL1         0.1004
      23    C7      20.094680   19.672420   27.222616 C.3        1 MOL1        -0.0781
      24    H16     20.904873   19.065083   27.632080 H          1 MOL1         0.0978
      25    H17     20.450336   20.688636   27.038905 H          1 MOL1         0.0978
      26    H18     19.259227   19.695382   27.925902 H          1 MOL1         0.0978
@<TRIPOS>BOND
    1     1     2    1
    2     1     3    1
    3     1     4    1
    4     4     5    1
    5     4     6    1
    6     4     7    1
    7     7     8    1
    8     7     9    1
    9     7    10    1
   10    10    11    1
   11    10    12    1
   12    10    13    1
   13    13    14    1
   14    13    15    1
   15    13    16    1
   16    16    17    1
   17    16    18    1
   18    16    19    1
   19    19    20    1
   20    19    21    1
   21    19    22    1
   22     1    23    1
   23    23    24    1
   24    23    25    1
   25    23    26    1
@<TRIPOS>SUBSTRUCTURE
       1 MOL1            1 RESIDUE      1      MOL     
@<SCITEGIC>MOL_PROPERTY
VM2 Rank
SciTegic.value.IntegerValue
147

@<SCITEGIC>MOL_PROPERTY
Conf_Id
SciTegic.value.IntegerValue
424

@<SCITEGIC>MOL_PROPERTY
Probability
SciTegic.value.DoubleValue
0.01

@<SCITEGIC>MOL_PROPERTY
Sum Probability
SciTegic.value.DoubleValue
99.80

@<SCITEGIC>MOL_PROPERTY
Delta G
SciTegic.value.DoubleValue
3.838

@<SCITEGIC>MOL_PROPERTY
G
SciTegic.value.DoubleValue
79.304

@<SCITEGIC>MOL_PROPERTY
E
SciTegic.value.DoubleValue
46.686

@<SCITEGIC>MOL_PROPERTY
-TS
SciTegic.value.DoubleValue
32.618

@<SCITEGIC>MOL_PROPERTY
U+W
SciTegic.value.DoubleValue
25.224

@<SCITEGIC>MOL_PROPERTY
U
SciTegic.value.DoubleValue
74.516

@<SCITEGIC>MOL_PROPERTY
W
SciTegic.value.DoubleValue
-49.293

@<SCITEGIC>MOL_PROPERTY
W(PB)
SciTegic.value.DoubleValue
-51.558

@<SCITEGIC>MOL_PROPERTY
W(SA)
SciTegic.value.DoubleValue
2.266

@<SCITEGIC>MOL_PROPERTY
Valence
SciTegic.value.DoubleValue
4.842

@<SCITEGIC>MOL_PROPERTY
Coulomb
SciTegic.value.DoubleValue
69.332

@<SCITEGIC>MOL_PROPERTY
VdW
SciTegic.value.DoubleValue
0.342

@<SCITEGIC>MOL_PROPERTY
VdW6
SciTegic.value.DoubleValue
-7.369

@<SCITEGIC>MOL_PROPERTY
VdW12
SciTegic.value.DoubleValue
7.711

@<SCITEGIC>MOL_PROPERTY
Bond
SciTegic.value.DoubleValue
0.232

@<SCITEGIC>MOL_PROPERTY
Angle
SciTegic.value.DoubleValue
1.153

@<SCITEGIC>MOL_PROPERTY
Pdih
SciTegic.value.DoubleValue
3.457

@<SCITEGIC>MOL_PROPERTY
Idih
SciTegic.value.DoubleValue
0.000

@<SCITEGIC>MOL_PROPERTY
Tether
SciTegic.value.DoubleValue
0.000

@<TRIPOS>MOLECULE
guest-s12_vm2.mol2 : vm2 ligand conformer 148
          26          25           1
SMALL
USER_CHARGES
 
@<TRIPOS>ATOM
       1    N1      19.361767   19.268470   25.684186 N.4        1 MOL1        -0.4857
       2    H1      18.450319   18.886414   25.387776 H          1 MOL1         0.3650
       3    H2      19.368287   20.248531   25.363774 H          1 MOL1         0.3650
       4    C1      20.489733   18.498222   25.025251 C.3        1 MOL1         0.0209
       5    H3      20.444441   17.469171   25.390772 H          1 MOL1         0.0967
       6    H4      21.434969   18.936315   25.355448 H          1 MOL1         0.0967
       7    C2      20.428733   18.497116   23.485133 C.3        1 MOL1        -0.1378
       8    H5      21.227695   17.846388   23.105878 H          1 MOL1         0.0993
       9    H6      19.476481   18.055229   23.166568 H          1 MOL1         0.0993
      10    C3      20.588622   19.913878   22.882605 C.3        1 MOL1        -0.1338
      11    H7      21.464745   20.396863   23.337419 H          1 MOL1         0.0993
      12    H8      19.722501   20.532812   23.152503 H          1 MOL1         0.0993
      13    C4      20.767812   19.936673   21.342408 C.3        1 MOL1        -0.1338
      14    H9      20.925893   20.982504   21.044461 H          1 MOL1         0.0993
      15    H10     21.688494   19.407587   21.060225 H          1 MOL1         0.0993
      16    C5      19.562880   19.384111   20.537612 C.3        1 MOL1        -0.1313
      17    H11     19.472372   19.959610   19.605616 H          1 MOL1         0.0993
      18    H12     18.626419   19.552060   21.087538 H          1 MOL1         0.0993
      19    C6      19.705296   17.890561   20.161393 C.3        1 MOL1        -0.2328
      20    H13     19.767918   17.245535   21.044415 H          1 MOL1         0.1004
      21    H14     20.605600   17.722996   19.556085 H          1 MOL1         0.1004
      22    H15     18.841494   17.560001   19.570224 H          1 MOL1         0.1004
      23    C7      19.503157   19.200969   27.198413 C.3        1 MOL1        -0.0781
      24    H16     20.460232   19.639306   27.489625 H          1 MOL1         0.0978
      25    H17     18.685804   19.759632   27.659872 H          1 MOL1         0.0978
      26    H18     19.462121   18.156948   27.516633 H          1 MOL1         0.0978
@<TRIPOS>BOND
    1     1     2    1
    2     1     3    1
    3     1     4    1
    4     4     5    1
    5     4     6    1
    6     4     7    1
    7     7     8    1
    8     7     9    1
    9     7    10    1
   10    10    11    1
   11    10    12    1
   12    10    13    1
   13    13    14    1
   14    13    15    1
   15    13    16    1
   16    16    17    1
   17    16    18    1
   18    16    19    1
   19    19    20    1
   20    19    21    1
   21    19    22    1
   22     1    23    1
   23    23    24    1
   24    23    25    1
   25    23    26    1
@<TRIPOS>SUBSTRUCTURE
       1 MOL1            1 RESIDUE      1      MOL     
@<SCITEGIC>MOL_PROPERTY
VM2 Rank
SciTegic.value.IntegerValue
148

@<SCITEGIC>MOL_PROPERTY
Conf_Id
SciTegic.value.IntegerValue
242

@<SCITEGIC>MOL_PROPERTY
Probability
SciTegic.value.DoubleValue
0.01

@<SCITEGIC>MOL_PROPERTY
Sum Probability
SciTegic.value.DoubleValue
99.81

@<SCITEGIC>MOL_PROPERTY
Delta G
SciTegic.value.DoubleValue
3.876

@<SCITEGIC>MOL_PROPERTY
G
SciTegic.value.DoubleValue
79.342

@<SCITEGIC>MOL_PROPERTY
E
SciTegic.value.DoubleValue
46.756

@<SCITEGIC>MOL_PROPERTY
-TS
SciTegic.value.DoubleValue
32.586

@<SCITEGIC>MOL_PROPERTY
U+W
SciTegic.value.DoubleValue
25.294

@<SCITEGIC>MOL_PROPERTY
U
SciTegic.value.DoubleValue
74.608

@<SCITEGIC>MOL_PROPERTY
W
SciTegic.value.DoubleValue
-49.314

@<SCITEGIC>MOL_PROPERTY
W(PB)
SciTegic.value.DoubleValue
-51.566

@<SCITEGIC>MOL_PROPERTY
W(SA)
SciTegic.value.DoubleValue
2.252

@<SCITEGIC>MOL_PROPERTY
Valence
SciTegic.value.DoubleValue
4.823

@<SCITEGIC>MOL_PROPERTY
Coulomb
SciTegic.value.DoubleValue
69.470

@<SCITEGIC>MOL_PROPERTY
VdW
SciTegic.value.DoubleValue
0.315

@<SCITEGIC>MOL_PROPERTY
VdW6
SciTegic.value.DoubleValue
-7.375

@<SCITEGIC>MOL_PROPERTY
VdW12
SciTegic.value.DoubleValue
7.690

@<SCITEGIC>MOL_PROPERTY
Bond
SciTegic.value.DoubleValue
0.227

@<SCITEGIC>MOL_PROPERTY
Angle
SciTegic.value.DoubleValue
1.209

@<SCITEGIC>MOL_PROPERTY
Pdih
SciTegic.value.DoubleValue
3.386

@<SCITEGIC>MOL_PROPERTY
Idih
SciTegic.value.DoubleValue
0.000

@<SCITEGIC>MOL_PROPERTY
Tether
SciTegic.value.DoubleValue
0.000

@<TRIPOS>MOLECULE
guest-s12_vm2.mol2 : vm2 ligand conformer 149
          26          25           1
SMALL
USER_CHARGES
 
@<TRIPOS>ATOM
       1    N1      19.706824   18.742158   25.880461 N.4        1 MOL1        -0.4857
       2    H1      19.741901   17.713282   25.810858 H          1 MOL1         0.3650
       3    H2      18.754292   19.006431   25.587435 H          1 MOL1         0.3650
       4    C1      20.730514   19.363180   24.949508 C.3        1 MOL1         0.0209
       5    H3      21.719792   19.056977   25.299048 H          1 MOL1         0.0967
       6    H4      20.657259   20.449646   25.042607 H          1 MOL1         0.0967
       7    C2      20.563971   18.956345   23.471949 C.3        1 MOL1        -0.1378
       8    H5      21.420915   19.356333   22.916315 H          1 MOL1         0.0993
       9    H6      20.607643   17.862674   23.384691 H          1 MOL1         0.0993
      10    C3      19.251581   19.490739   22.848104 C.3        1 MOL1        -0.1338
      11    H7      19.258708   20.589335   22.871619 H          1 MOL1         0.0993
      12    H8      18.399003   19.178183   23.465083 H          1 MOL1         0.0993
      13    C4      18.990785   19.009096   21.397135 C.3        1 MOL1        -0.1338
      14    H9      18.873540   17.916808   21.377009 H          1 MOL1         0.0993
      15    H10     18.018885   19.415442   21.084358 H          1 MOL1         0.0993
      16    C5      20.054695   19.453547   20.360139 C.3        1 MOL1        -0.1313
      17    H11     20.517176   20.401453   20.668689 H          1 MOL1         0.0993
      18    H12     19.548653   19.661638   19.406917 H          1 MOL1         0.0993
      19    C6      21.141329   18.384318   20.098165 C.3        1 MOL1        -0.2328
      20    H13     20.694297   17.456972   19.717061 H          1 MOL1         0.1004
      21    H14     21.706123   18.138091   21.003937 H          1 MOL1         0.1004
      22    H15     21.857552   18.740992   19.346688 H          1 MOL1         0.1004
      23    C7      19.968301   19.190618   27.311539 C.3        1 MOL1        -0.0781
      24    H16     19.224842   18.736894   27.970722 H          1 MOL1         0.0978
      25    H17     20.969427   18.872180   27.610332 H          1 MOL1         0.0978
      26    H18     19.894437   20.278973   27.365992 H          1 MOL1         0.0978
@<TRIPOS>BOND
    1     1     2    1
    2     1     3    1
    3     1     4    1
    4     4     5    1
    5     4     6    1
    6     4     7    1
    7     7     8    1
    8     7     9    1
    9     7    10    1
   10    10    11    1
   11    10    12    1
   12    10    13    1
   13    13    14    1
   14    13    15    1
   15    13    16    1
   16    16    17    1
   17    16    18    1
   18    16    19    1
   19    19    20    1
   20    19    21    1
   21    19    22    1
   22     1    23    1
   23    23    24    1
   24    23    25    1
   25    23    26    1
@<TRIPOS>SUBSTRUCTURE
       1 MOL1            1 RESIDUE      1      MOL     
@<SCITEGIC>MOL_PROPERTY
VM2 Rank
SciTegic.value.IntegerValue
149

@<SCITEGIC>MOL_PROPERTY
Conf_Id
SciTegic.value.IntegerValue
391

@<SCITEGIC>MOL_PROPERTY
Probability
SciTegic.value.DoubleValue
0.01

@<SCITEGIC>MOL_PROPERTY
Sum Probability
SciTegic.value.DoubleValue
99.82

@<SCITEGIC>MOL_PROPERTY
Delta G
SciTegic.value.DoubleValue
3.878

@<SCITEGIC>MOL_PROPERTY
G
SciTegic.value.DoubleValue
79.344

@<SCITEGIC>MOL_PROPERTY
E
SciTegic.value.DoubleValue
46.765

@<SCITEGIC>MOL_PROPERTY
-TS
SciTegic.value.DoubleValue
32.579

@<SCITEGIC>MOL_PROPERTY
U+W
SciTegic.value.DoubleValue
25.303

@<SCITEGIC>MOL_PROPERTY
U
SciTegic.value.DoubleValue
74.594

@<SCITEGIC>MOL_PROPERTY
W
SciTegic.value.DoubleValue
-49.291

@<SCITEGIC>MOL_PROPERTY
W(PB)
SciTegic.value.DoubleValue
-51.537

@<SCITEGIC>MOL_PROPERTY
W(SA)
SciTegic.value.DoubleValue
2.246

@<SCITEGIC>MOL_PROPERTY
Valence
SciTegic.value.DoubleValue
4.886

@<SCITEGIC>MOL_PROPERTY
Coulomb
SciTegic.value.DoubleValue
69.332

@<SCITEGIC>MOL_PROPERTY
VdW
SciTegic.value.DoubleValue
0.377

@<SCITEGIC>MOL_PROPERTY
VdW6
SciTegic.value.DoubleValue
-7.329

@<SCITEGIC>MOL_PROPERTY
VdW12
SciTegic.value.DoubleValue
7.706

@<SCITEGIC>MOL_PROPERTY
Bond
SciTegic.value.DoubleValue
0.232

@<SCITEGIC>MOL_PROPERTY
Angle
SciTegic.value.DoubleValue
1.250

@<SCITEGIC>MOL_PROPERTY
Pdih
SciTegic.value.DoubleValue
3.404

@<SCITEGIC>MOL_PROPERTY
Idih
SciTegic.value.DoubleValue
0.000

@<SCITEGIC>MOL_PROPERTY
Tether
SciTegic.value.DoubleValue
0.000

@<TRIPOS>MOLECULE
guest-s12_vm2.mol2 : vm2 ligand conformer 150
          26          25           1
SMALL
USER_CHARGES
 
@<TRIPOS>ATOM
       1    N1      20.272672   18.800053   25.900622 N.4        1 MOL1        -0.4857
       2    H1      21.170363   19.253241   25.673044 H          1 MOL1         0.3650
       3    H2      20.451025   17.785796   25.836361 H          1 MOL1         0.3650
       4    C1      19.212460   19.207979   24.895718 C.3        1 MOL1         0.0209
       5    H3      19.058038   20.286164   24.985774 H          1 MOL1         0.0967
       6    H4      18.283408   18.705812   25.177327 H          1 MOL1         0.0967
       7    C2      19.560879   18.853561   23.436460 C.3        1 MOL1        -0.1378
       8    H5      19.745128   17.774237   23.354300 H          1 MOL1         0.0993
       9    H6      18.681934   19.076219   22.819253 H          1 MOL1         0.0993
      10    C3      20.778803   19.646301   22.902271 C.3        1 MOL1        -0.1338
      11    H7      21.631585   19.507764   23.579629 H          1 MOL1         0.0993
      12    H8      20.548495   20.720657   22.917466 H          1 MOL1         0.0993
      13    C4      21.232355   19.237697   21.476564 C.3        1 MOL1        -0.1338
      14    H9      22.121850   19.833905   21.229842 H          1 MOL1         0.0993
      15    H10     21.568528   18.191649   21.472357 H          1 MOL1         0.0993
      16    C5      20.176017   19.466103   20.364456 C.3        1 MOL1        -0.1313
      17    H11     20.695235   19.778938   19.447635 H          1 MOL1         0.0993
      18    H12     19.511442   20.299007   20.633211 H          1 MOL1         0.0993
      19    C6      19.348377   18.201699   20.034385 C.3        1 MOL1        -0.2328
      20    H13     18.782779   17.840014   20.900020 H          1 MOL1         0.1004
      21    H14     19.998788   17.386350   19.692016 H          1 MOL1         0.1004
      22    H15     18.629403   18.412157   19.232080 H          1 MOL1         0.1004
      23    C7      19.826437   19.176607   27.306523 C.3        1 MOL1        -0.0781
      24    H16     20.598147   18.877813   28.019478 H          1 MOL1         0.0978
      25    H17     19.675051   20.257058   27.357947 H          1 MOL1         0.0978
      26    H18     18.891795   18.660539   27.536854 H          1 MOL1         0.0978
@<TRIPOS>BOND
    1     1     2    1
    2     1     3    1
    3     1     4    1
    4     4     5    1
    5     4     6    1
    6     4     7    1
    7     7     8    1
    8     7     9    1
    9     7    10    1
   10    10    11    1
   11    10    12    1
   12    10    13    1
   13    13    14    1
   14    13    15    1
   15    13    16    1
   16    16    17    1
   17    16    18    1
   18    16    19    1
   19    19    20    1
   20    19    21    1
   21    19    22    1
   22     1    23    1
   23    23    24    1
   24    23    25    1
   25    23    26    1
@<TRIPOS>SUBSTRUCTURE
       1 MOL1            1 RESIDUE      1      MOL     
@<SCITEGIC>MOL_PROPERTY
VM2 Rank
SciTegic.value.IntegerValue
150

@<SCITEGIC>MOL_PROPERTY
Conf_Id
SciTegic.value.IntegerValue
1341

@<SCITEGIC>MOL_PROPERTY
Probability
SciTegic.value.DoubleValue
0.01

@<SCITEGIC>MOL_PROPERTY
Sum Probability
SciTegic.value.DoubleValue
99.83

@<SCITEGIC>MOL_PROPERTY
Delta G
SciTegic.value.DoubleValue
3.883

@<SCITEGIC>MOL_PROPERTY
G
SciTegic.value.DoubleValue
79.349

@<SCITEGIC>MOL_PROPERTY
E
SciTegic.value.DoubleValue
46.771

@<SCITEGIC>MOL_PROPERTY
-TS
SciTegic.value.DoubleValue
32.579

@<SCITEGIC>MOL_PROPERTY
U+W
SciTegic.value.DoubleValue
25.309

@<SCITEGIC>MOL_PROPERTY
U
SciTegic.value.DoubleValue
74.594

@<SCITEGIC>MOL_PROPERTY
W
SciTegic.value.DoubleValue
-49.285

@<SCITEGIC>MOL_PROPERTY
W(PB)
SciTegic.value.DoubleValue
-51.538

@<SCITEGIC>MOL_PROPERTY
W(SA)
SciTegic.value.DoubleValue
2.253

@<SCITEGIC>MOL_PROPERTY
Valence
SciTegic.value.DoubleValue
4.886

@<SCITEGIC>MOL_PROPERTY
Coulomb
SciTegic.value.DoubleValue
69.332

@<SCITEGIC>MOL_PROPERTY
VdW
SciTegic.value.DoubleValue
0.376

@<SCITEGIC>MOL_PROPERTY
VdW6
SciTegic.value.DoubleValue
-7.329

@<SCITEGIC>MOL_PROPERTY
VdW12
SciTegic.value.DoubleValue
7.705

@<SCITEGIC>MOL_PROPERTY
Bond
SciTegic.value.DoubleValue
0.232

@<SCITEGIC>MOL_PROPERTY
Angle
SciTegic.value.DoubleValue
1.250

@<SCITEGIC>MOL_PROPERTY
Pdih
SciTegic.value.DoubleValue
3.404

@<SCITEGIC>MOL_PROPERTY
Idih
SciTegic.value.DoubleValue
0.000

@<SCITEGIC>MOL_PROPERTY
Tether
SciTegic.value.DoubleValue
0.000

@<TRIPOS>MOLECULE
guest-s12_vm2.mol2 : vm2 ligand conformer 151
          26          25           1
SMALL
USER_CHARGES
 
@<TRIPOS>ATOM
       1    N1      19.346786   18.856877   25.448630 N.4        1 MOL1        -0.4857
       2    H1      19.212396   17.854672   25.654423 H          1 MOL1         0.3650
       3    H2      18.771460   19.046469   24.615648 H          1 MOL1         0.3650
       4    C1      20.807890   19.135311   25.150918 C.3        1 MOL1         0.0209
       5    H3      21.370139   18.866901   26.048920 H          1 MOL1         0.0967
       6    H4      20.929677   20.208195   24.982323 H          1 MOL1         0.0967
       7    C2      21.373447   18.349061   23.949418 C.3        1 MOL1        -0.1378
       8    H5      22.460114   18.267784   24.085060 H          1 MOL1         0.0993
       9    H6      20.991654   17.319515   23.959387 H          1 MOL1         0.0993
      10    C3      21.115748   19.007614   22.569609 C.3        1 MOL1        -0.1338
      11    H7      21.645210   18.413896   21.813758 H          1 MOL1         0.0993
      12    H8      21.574368   20.005919   22.550963 H          1 MOL1         0.0993
      13    C4      19.619391   19.121733   22.182996 C.3        1 MOL1        -0.1338
      14    H9      19.133101   18.140513   22.272324 H          1 MOL1         0.0993
      15    H10     19.114450   19.794559   22.886893 H          1 MOL1         0.0993
      16    C5      19.392232   19.681253   20.757291 C.3        1 MOL1        -0.1313
      17    H11     19.892637   20.654345   20.654484 H          1 MOL1         0.0993
      18    H12     18.318484   19.873365   20.622718 H          1 MOL1         0.0993
      19    C6      19.866981   18.728970   19.635666 C.3        1 MOL1        -0.2328
      20    H13     19.589705   19.127866   18.651321 H          1 MOL1         0.1004
      21    H14     19.405893   17.737962   19.737039 H          1 MOL1         0.1004
      22    H15     20.956561   18.603980   19.643472 H          1 MOL1         0.1004
      23    C7      18.885525   19.709181   26.622472 C.3        1 MOL1        -0.0781
      24    H16     17.833576   19.498030   26.827247 H          1 MOL1         0.0978
      25    H17     19.488022   19.466748   27.500624 H          1 MOL1         0.0978
      26    H18     19.007687   20.764731   26.369854 H          1 MOL1         0.0978
@<TRIPOS>BOND
    1     1     2    1
    2     1     3    1
    3     1     4    1
    4     4     5    1
    5     4     6    1
    6     4     7    1
    7     7     8    1
    8     7     9    1
    9     7    10    1
   10    10    11    1
   11    10    12    1
   12    10    13    1
   13    13    14    1
   14    13    15    1
   15    13    16    1
   16    16    17    1
   17    16    18    1
   18    16    19    1
   19    19    20    1
   20    19    21    1
   21    19    22    1
   22     1    23    1
   23    23    24    1
   24    23    25    1
   25    23    26    1
@<TRIPOS>SUBSTRUCTURE
       1 MOL1            1 RESIDUE      1      MOL     
@<SCITEGIC>MOL_PROPERTY
VM2 Rank
SciTegic.value.IntegerValue
151

@<SCITEGIC>MOL_PROPERTY
Conf_Id
SciTegic.value.IntegerValue
815

@<SCITEGIC>MOL_PROPERTY
Probability
SciTegic.value.DoubleValue
0.01

@<SCITEGIC>MOL_PROPERTY
Sum Probability
SciTegic.value.DoubleValue
99.84

@<SCITEGIC>MOL_PROPERTY
Delta G
SciTegic.value.DoubleValue
3.892

@<SCITEGIC>MOL_PROPERTY
G
SciTegic.value.DoubleValue
79.358

@<SCITEGIC>MOL_PROPERTY
E
SciTegic.value.DoubleValue
46.982

@<SCITEGIC>MOL_PROPERTY
-TS
SciTegic.value.DoubleValue
32.375

@<SCITEGIC>MOL_PROPERTY
U+W
SciTegic.value.DoubleValue
25.521

@<SCITEGIC>MOL_PROPERTY
U
SciTegic.value.DoubleValue
74.712

@<SCITEGIC>MOL_PROPERTY
W
SciTegic.value.DoubleValue
-49.192

@<SCITEGIC>MOL_PROPERTY
W(PB)
SciTegic.value.DoubleValue
-51.482

@<SCITEGIC>MOL_PROPERTY
W(SA)
SciTegic.value.DoubleValue
2.291

@<SCITEGIC>MOL_PROPERTY
Valence
SciTegic.value.DoubleValue
4.001

@<SCITEGIC>MOL_PROPERTY
Coulomb
SciTegic.value.DoubleValue
70.536

@<SCITEGIC>MOL_PROPERTY
VdW
SciTegic.value.DoubleValue
0.175

@<SCITEGIC>MOL_PROPERTY
VdW6
SciTegic.value.DoubleValue
-7.477

@<SCITEGIC>MOL_PROPERTY
VdW12
SciTegic.value.DoubleValue
7.652

@<SCITEGIC>MOL_PROPERTY
Bond
SciTegic.value.DoubleValue
0.220

@<SCITEGIC>MOL_PROPERTY
Angle
SciTegic.value.DoubleValue
1.251

@<SCITEGIC>MOL_PROPERTY
Pdih
SciTegic.value.DoubleValue
2.531

@<SCITEGIC>MOL_PROPERTY
Idih
SciTegic.value.DoubleValue
0.000

@<SCITEGIC>MOL_PROPERTY
Tether
SciTegic.value.DoubleValue
0.000

@<TRIPOS>MOLECULE
guest-s12_vm2.mol2 : vm2 ligand conformer 152
          26          25           1
SMALL
USER_CHARGES
 
@<TRIPOS>ATOM
       1    N1      19.787792   18.430317   25.890424 N.4        1 MOL1        -0.4857
       2    H1      20.656105   18.064095   26.310780 H          1 MOL1         0.3650
       3    H2      19.273633   17.600857   25.555321 H          1 MOL1         0.3650
       4    C1      20.115282   19.347327   24.729219 C.3        1 MOL1         0.0209
       5    H3      20.666982   20.204075   25.124188 H          1 MOL1         0.0967
       6    H4      19.171174   19.707382   24.314331 H          1 MOL1         0.0967
       7    C2      20.944817   18.660781   23.626706 C.3        1 MOL1        -0.1378
       8    H5      21.869281   18.269643   24.071828 H          1 MOL1         0.0993
       9    H6      20.395756   17.793992   23.242883 H          1 MOL1         0.0993
      10    C3      21.319623   19.626540   22.473686 C.3        1 MOL1        -0.1338
      11    H7      22.045704   19.142226   21.806352 H          1 MOL1         0.0993
      12    H8      21.847275   20.486643   22.908989 H          1 MOL1         0.0993
      13    C4      20.116678   20.151497   21.642489 C.3        1 MOL1        -0.1338
      14    H9      19.218372   20.243972   22.266077 H          1 MOL1         0.0993
      15    H10     20.351767   21.173856   21.315432 H          1 MOL1         0.0993
      16    C5      19.793000   19.323524   20.372485 C.3        1 MOL1        -0.1313
      17    H11     20.661711   19.324359   19.699341 H          1 MOL1         0.0993
      18    H12     18.985022   19.829029   19.825213 H          1 MOL1         0.0993
      19    C6      19.362895   17.867071   20.652779 C.3        1 MOL1        -0.2328
      20    H13     20.202183   17.269098   21.028009 H          1 MOL1         0.1004
      21    H14     19.008180   17.388304   19.730911 H          1 MOL1         0.1004
      22    H15     18.547438   17.827948   21.386516 H          1 MOL1         0.1004
      23    C7      18.967913   19.182944   26.929211 C.3        1 MOL1        -0.0781
      24    H16     19.544834   20.036181   27.292676 H          1 MOL1         0.0978
      25    H17     18.040067   19.531791   26.470570 H          1 MOL1         0.0978
      26    H18     18.739096   18.511623   27.759938 H          1 MOL1         0.0978
@<TRIPOS>BOND
    1     1     2    1
    2     1     3    1
    3     1     4    1
    4     4     5    1
    5     4     6    1
    6     4     7    1
    7     7     8    1
    8     7     9    1
    9     7    10    1
   10    10    11    1
   11    10    12    1
   12    10    13    1
   13    13    14    1
   14    13    15    1
   15    13    16    1
   16    16    17    1
   17    16    18    1
   18    16    19    1
   19    19    20    1
   20    19    21    1
   21    19    22    1
   22     1    23    1
   23    23    24    1
   24    23    25    1
   25    23    26    1
@<TRIPOS>SUBSTRUCTURE
       1 MOL1            1 RESIDUE      1      MOL     
@<SCITEGIC>MOL_PROPERTY
VM2 Rank
SciTegic.value.IntegerValue
152

@<SCITEGIC>MOL_PROPERTY
Conf_Id
SciTegic.value.IntegerValue
1241

@<SCITEGIC>MOL_PROPERTY
Probability
SciTegic.value.DoubleValue
0.01

@<SCITEGIC>MOL_PROPERTY
Sum Probability
SciTegic.value.DoubleValue
99.85

@<SCITEGIC>MOL_PROPERTY
Delta G
SciTegic.value.DoubleValue
3.906

@<SCITEGIC>MOL_PROPERTY
G
SciTegic.value.DoubleValue
79.372

@<SCITEGIC>MOL_PROPERTY
E
SciTegic.value.DoubleValue
46.848

@<SCITEGIC>MOL_PROPERTY
-TS
SciTegic.value.DoubleValue
32.524

@<SCITEGIC>MOL_PROPERTY
U+W
SciTegic.value.DoubleValue
25.386

@<SCITEGIC>MOL_PROPERTY
U
SciTegic.value.DoubleValue
74.853

@<SCITEGIC>MOL_PROPERTY
W
SciTegic.value.DoubleValue
-49.467

@<SCITEGIC>MOL_PROPERTY
W(PB)
SciTegic.value.DoubleValue
-51.720

@<SCITEGIC>MOL_PROPERTY
W(SA)
SciTegic.value.DoubleValue
2.254

@<SCITEGIC>MOL_PROPERTY
Valence
SciTegic.value.DoubleValue
5.100

@<SCITEGIC>MOL_PROPERTY
Coulomb
SciTegic.value.DoubleValue
69.478

@<SCITEGIC>MOL_PROPERTY
VdW
SciTegic.value.DoubleValue
0.275

@<SCITEGIC>MOL_PROPERTY
VdW6
SciTegic.value.DoubleValue
-7.403

@<SCITEGIC>MOL_PROPERTY
VdW12
SciTegic.value.DoubleValue
7.678

@<SCITEGIC>MOL_PROPERTY
Bond
SciTegic.value.DoubleValue
0.247

@<SCITEGIC>MOL_PROPERTY
Angle
SciTegic.value.DoubleValue
1.393

@<SCITEGIC>MOL_PROPERTY
Pdih
SciTegic.value.DoubleValue
3.460

@<SCITEGIC>MOL_PROPERTY
Idih
SciTegic.value.DoubleValue
0.000

@<SCITEGIC>MOL_PROPERTY
Tether
SciTegic.value.DoubleValue
0.000

@<TRIPOS>MOLECULE
guest-s12_vm2.mol2 : vm2 ligand conformer 153
          26          25           1
SMALL
USER_CHARGES
 
@<TRIPOS>ATOM
       1    N1      20.255768   18.478104   25.906973 N.4        1 MOL1        -0.4857
       2    H1      20.948774   17.771724   25.614695 H          1 MOL1         0.3650
       3    H2      19.451861   17.941379   26.268150 H          1 MOL1         0.3650
       4    C1      19.832245   19.318418   24.719095 C.3        1 MOL1         0.0209
       5    H3      20.711052   19.864362   24.368727 H          1 MOL1         0.0967
       6    H4      19.092855   20.043514   25.068282 H          1 MOL1         0.0967
       7    C2      19.237444   18.486508   23.566208 C.3        1 MOL1        -0.1378
       8    H5      19.975530   17.751026   23.227968 H          1 MOL1         0.0993
       9    H6      18.382046   17.913793   23.948369 H          1 MOL1         0.0993
      10    C3      18.757128   19.364967   22.382890 C.3        1 MOL1        -0.1338
      11    H7      18.037606   20.097760   22.774024 H          1 MOL1         0.0993
      12    H8      18.192259   18.748870   21.669844 H          1 MOL1         0.0993
      13    C4      19.884541   20.127826   21.634205 C.3        1 MOL1        -0.1338
      14    H9      19.471371   21.083918   21.284020 H          1 MOL1         0.0993
      15    H10     20.699700   20.395426   22.318509 H          1 MOL1         0.0993
      16    C5      20.456951   19.391214   20.396071 C.3        1 MOL1        -0.1313
      17    H11     21.182495   20.053328   19.903059 H          1 MOL1         0.0993
      18    H12     19.655326   19.221284   19.663744 H          1 MOL1         0.0993
      19    C6      21.151649   18.049729   20.716418 C.3        1 MOL1        -0.2328
      20    H13     21.904645   18.170950   21.505829 H          1 MOL1         0.1004
      21    H14     21.659577   17.659033   19.825212 H          1 MOL1         0.1004
      22    H15     20.426235   17.291893   21.036156 H          1 MOL1         0.1004
      23    C7      20.832274   19.373234   26.995140 C.3        1 MOL1        -0.0781
      24    H16     21.700570   19.905160   26.600091 H          1 MOL1         0.0978
      25    H17     20.071194   20.090093   27.311092 H          1 MOL1         0.0978
      26    H18     21.132926   18.756006   27.844712 H          1 MOL1         0.0978
@<TRIPOS>BOND
    1     1     2    1
    2     1     3    1
    3     1     4    1
    4     4     5    1
    5     4     6    1
    6     4     7    1
    7     7     8    1
    8     7     9    1
    9     7    10    1
   10    10    11    1
   11    10    12    1
   12    10    13    1
   13    13    14    1
   14    13    15    1
   15    13    16    1
   16    16    17    1
   17    16    18    1
   18    16    19    1
   19    19    20    1
   20    19    21    1
   21    19    22    1
   22     1    23    1
   23    23    24    1
   24    23    25    1
   25    23    26    1
@<TRIPOS>SUBSTRUCTURE
       1 MOL1            1 RESIDUE      1      MOL     
@<SCITEGIC>MOL_PROPERTY
VM2 Rank
SciTegic.value.IntegerValue
153

@<SCITEGIC>MOL_PROPERTY
Conf_Id
SciTegic.value.IntegerValue
1239

@<SCITEGIC>MOL_PROPERTY
Probability
SciTegic.value.DoubleValue
0.01

@<SCITEGIC>MOL_PROPERTY
Sum Probability
SciTegic.value.DoubleValue
99.86

@<SCITEGIC>MOL_PROPERTY
Delta G
SciTegic.value.DoubleValue
3.917

@<SCITEGIC>MOL_PROPERTY
G
SciTegic.value.DoubleValue
79.383

@<SCITEGIC>MOL_PROPERTY
E
SciTegic.value.DoubleValue
46.860

@<SCITEGIC>MOL_PROPERTY
-TS
SciTegic.value.DoubleValue
32.524

@<SCITEGIC>MOL_PROPERTY
U+W
SciTegic.value.DoubleValue
25.398

@<SCITEGIC>MOL_PROPERTY
U
SciTegic.value.DoubleValue
74.853

@<SCITEGIC>MOL_PROPERTY
W
SciTegic.value.DoubleValue
-49.455

@<SCITEGIC>MOL_PROPERTY
W(PB)
SciTegic.value.DoubleValue
-51.723

@<SCITEGIC>MOL_PROPERTY
W(SA)
SciTegic.value.DoubleValue
2.268

@<SCITEGIC>MOL_PROPERTY
Valence
SciTegic.value.DoubleValue
5.100

@<SCITEGIC>MOL_PROPERTY
Coulomb
SciTegic.value.DoubleValue
69.478

@<SCITEGIC>MOL_PROPERTY
VdW
SciTegic.value.DoubleValue
0.275

@<SCITEGIC>MOL_PROPERTY
VdW6
SciTegic.value.DoubleValue
-7.403

@<SCITEGIC>MOL_PROPERTY
VdW12
SciTegic.value.DoubleValue
7.678

@<SCITEGIC>MOL_PROPERTY
Bond
SciTegic.value.DoubleValue
0.247

@<SCITEGIC>MOL_PROPERTY
Angle
SciTegic.value.DoubleValue
1.394

@<SCITEGIC>MOL_PROPERTY
Pdih
SciTegic.value.DoubleValue
3.459

@<SCITEGIC>MOL_PROPERTY
Idih
SciTegic.value.DoubleValue
0.000

@<SCITEGIC>MOL_PROPERTY
Tether
SciTegic.value.DoubleValue
0.000

@<TRIPOS>MOLECULE
guest-s12_vm2.mol2 : vm2 ligand conformer 154
          26          25           1
SMALL
USER_CHARGES
 
@<TRIPOS>ATOM
       1    N1      20.206104   19.303900   25.967587 N.4        1 MOL1        -0.4857
       2    H1      21.006110   19.871843   25.651078 H          1 MOL1         0.3650
       3    H2      20.425690   19.052170   26.944428 H          1 MOL1         0.3650
       4    C1      20.098389   18.040187   25.128314 C.3        1 MOL1         0.0209
       5    H3      19.234471   17.476020   25.488649 H          1 MOL1         0.0967
       6    H4      20.993520   17.443416   25.321197 H          1 MOL1         0.0967
       7    C2      19.967358   18.270350   23.606916 C.3        1 MOL1        -0.1378
       8    H5      19.876306   17.292918   23.115279 H          1 MOL1         0.0993
       9    H6      19.038078   18.815230   23.402467 H          1 MOL1         0.0993
      10    C3      21.175334   19.034823   23.013847 C.3        1 MOL1        -0.1338
      11    H7      22.102944   18.554616   23.355144 H          1 MOL1         0.0993
      12    H8      21.195485   20.059129   23.409636 H          1 MOL1         0.0993
      13    C4      21.198437   19.089686   21.464310 C.3        1 MOL1        -0.1338
      14    H9      22.122220   19.604842   21.166427 H          1 MOL1         0.0993
      15    H10     21.280145   18.075174   21.050447 H          1 MOL1         0.0993
      16    C5      20.001635   19.837436   20.821310 C.3        1 MOL1        -0.1313
      17    H11     20.358789   20.361092   19.923412 H          1 MOL1         0.0993
      18    H12     19.630847   20.619312   21.498672 H          1 MOL1         0.0993
      19    C6      18.845922   18.901089   20.396951 C.3        1 MOL1        -0.2328
      20    H13     18.414562   18.364033   21.248568 H          1 MOL1         0.1004
      21    H14     19.192242   18.156528   19.668451 H          1 MOL1         0.1004
      22    H15     18.039269   19.476994   19.925207 H          1 MOL1         0.1004
      23    C7      18.914821   20.112529   25.917767 C.3        1 MOL1        -0.0781
      24    H16     19.018588   20.991257   26.558165 H          1 MOL1         0.0978
      25    H17     18.725723   20.427828   24.889665 H          1 MOL1         0.0978
      26    H18     18.089313   19.492292   26.273609 H          1 MOL1         0.0978
@<TRIPOS>BOND
    1     1     2    1
    2     1     3    1
    3     1     4    1
    4     4     5    1
    5     4     6    1
    6     4     7    1
    7     7     8    1
    8     7     9    1
    9     7    10    1
   10    10    11    1
   11    10    12    1
   12    10    13    1
   13    13    14    1
   14    13    15    1
   15    13    16    1
   16    16    17    1
   17    16    18    1
   18    16    19    1
   19    19    20    1
   20    19    21    1
   21    19    22    1
   22     1    23    1
   23    23    24    1
   24    23    25    1
   25    23    26    1
@<TRIPOS>SUBSTRUCTURE
       1 MOL1            1 RESIDUE      1      MOL     
@<SCITEGIC>MOL_PROPERTY
VM2 Rank
SciTegic.value.IntegerValue
154

@<SCITEGIC>MOL_PROPERTY
Conf_Id
SciTegic.value.IntegerValue
1335

@<SCITEGIC>MOL_PROPERTY
Probability
SciTegic.value.DoubleValue
0.01

@<SCITEGIC>MOL_PROPERTY
Sum Probability
SciTegic.value.DoubleValue
99.87

@<SCITEGIC>MOL_PROPERTY
Delta G
SciTegic.value.DoubleValue
3.934

@<SCITEGIC>MOL_PROPERTY
G
SciTegic.value.DoubleValue
79.400

@<SCITEGIC>MOL_PROPERTY
E
SciTegic.value.DoubleValue
46.583

@<SCITEGIC>MOL_PROPERTY
-TS
SciTegic.value.DoubleValue
32.817

@<SCITEGIC>MOL_PROPERTY
U+W
SciTegic.value.DoubleValue
25.121

@<SCITEGIC>MOL_PROPERTY
U
SciTegic.value.DoubleValue
74.888

@<SCITEGIC>MOL_PROPERTY
W
SciTegic.value.DoubleValue
-49.767

@<SCITEGIC>MOL_PROPERTY
W(PB)
SciTegic.value.DoubleValue
-51.981

@<SCITEGIC>MOL_PROPERTY
W(SA)
SciTegic.value.DoubleValue
2.214

@<SCITEGIC>MOL_PROPERTY
Valence
SciTegic.value.DoubleValue
5.066

@<SCITEGIC>MOL_PROPERTY
Coulomb
SciTegic.value.DoubleValue
69.354

@<SCITEGIC>MOL_PROPERTY
VdW
SciTegic.value.DoubleValue
0.468

@<SCITEGIC>MOL_PROPERTY
VdW6
SciTegic.value.DoubleValue
-8.349

@<SCITEGIC>MOL_PROPERTY
VdW12
SciTegic.value.DoubleValue
8.817

@<SCITEGIC>MOL_PROPERTY
Bond
SciTegic.value.DoubleValue
0.269

@<SCITEGIC>MOL_PROPERTY
Angle
SciTegic.value.DoubleValue
1.348

@<SCITEGIC>MOL_PROPERTY
Pdih
SciTegic.value.DoubleValue
3.450

@<SCITEGIC>MOL_PROPERTY
Idih
SciTegic.value.DoubleValue
0.000

@<SCITEGIC>MOL_PROPERTY
Tether
SciTegic.value.DoubleValue
0.000

@<TRIPOS>MOLECULE
guest-s12_vm2.mol2 : vm2 ligand conformer 155
          26          25           1
SMALL
USER_CHARGES
 
@<TRIPOS>ATOM
       1    N1      19.229761   19.071889   25.459311 N.4        1 MOL1        -0.4857
       2    H1      18.596884   18.335858   25.109829 H          1 MOL1         0.3650
       3    H2      18.940336   19.937110   24.979028 H          1 MOL1         0.3650
       4    C1      20.665962   18.735981   25.106646 C.3        1 MOL1         0.0209
       5    H3      20.927697   17.814893   25.633616 H          1 MOL1         0.0967
       6    H4      21.303441   19.538805   25.485488 H          1 MOL1         0.0967
       7    C2      20.910513   18.547878   23.596621 C.3        1 MOL1        -0.1378
       8    H5      21.943617   18.203650   23.455599 H          1 MOL1         0.0993
       9    H6      20.265369   17.744481   23.223917 H          1 MOL1         0.0993
      10    C3      20.695616   19.854861   22.790994 C.3        1 MOL1        -0.1338
      11    H7      21.366336   20.621980   23.202588 H          1 MOL1         0.0993
      12    H8      19.675846   20.237477   22.929282 H          1 MOL1         0.0993
      13    C4      20.997004   19.703055   21.276912 C.3        1 MOL1        -0.1338
      14    H9      21.429373   20.647450   20.918178 H          1 MOL1         0.0993
      15    H10     21.774052   18.943173   21.116053 H          1 MOL1         0.0993
      16    C5      19.759353   19.394010   20.395847 C.3        1 MOL1        -0.1313
      17    H11     20.076969   19.376657   19.343861 H          1 MOL1         0.0993
      18    H12     19.032883   20.214368   20.479703 H          1 MOL1         0.0993
      19    C6      19.060848   18.056132   20.723470 C.3        1 MOL1        -0.2328
      20    H13     19.775680   17.223183   20.716560 H          1 MOL1         0.1004
      21    H14     18.283851   17.837436   19.979607 H          1 MOL1         0.1004
      22    H15     18.572282   18.091182   21.704704 H          1 MOL1         0.1004
      23    C7      19.088942   19.226193   26.967200 C.3        1 MOL1        -0.0781
      24    H16     19.370724   18.288849   27.451877 H          1 MOL1         0.0978
      25    H17     19.743904   20.030826   27.308554 H          1 MOL1         0.0978
      26    H18     18.051202   19.468186   27.207298 H          1 MOL1         0.0978
@<TRIPOS>BOND
    1     1     2    1
    2     1     3    1
    3     1     4    1
    4     4     5    1
    5     4     6    1
    6     4     7    1
    7     7     8    1
    8     7     9    1
    9     7    10    1
   10    10    11    1
   11    10    12    1
   12    10    13    1
   13    13    14    1
   14    13    15    1
   15    13    16    1
   16    16    17    1
   17    16    18    1
   18    16    19    1
   19    19    20    1
   20    19    21    1
   21    19    22    1
   22     1    23    1
   23    23    24    1
   24    23    25    1
   25    23    26    1
@<TRIPOS>SUBSTRUCTURE
       1 MOL1            1 RESIDUE      1      MOL     
@<SCITEGIC>MOL_PROPERTY
VM2 Rank
SciTegic.value.IntegerValue
155

@<SCITEGIC>MOL_PROPERTY
Conf_Id
SciTegic.value.IntegerValue
1243

@<SCITEGIC>MOL_PROPERTY
Probability
SciTegic.value.DoubleValue
0.01

@<SCITEGIC>MOL_PROPERTY
Sum Probability
SciTegic.value.DoubleValue
99.88

@<SCITEGIC>MOL_PROPERTY
Delta G
SciTegic.value.DoubleValue
3.951

@<SCITEGIC>MOL_PROPERTY
G
SciTegic.value.DoubleValue
79.417

@<SCITEGIC>MOL_PROPERTY
E
SciTegic.value.DoubleValue
46.833

@<SCITEGIC>MOL_PROPERTY
-TS
SciTegic.value.DoubleValue
32.584

@<SCITEGIC>MOL_PROPERTY
U+W
SciTegic.value.DoubleValue
25.371

@<SCITEGIC>MOL_PROPERTY
U
SciTegic.value.DoubleValue
74.907

@<SCITEGIC>MOL_PROPERTY
W
SciTegic.value.DoubleValue
-49.536

@<SCITEGIC>MOL_PROPERTY
W(PB)
SciTegic.value.DoubleValue
-51.747

@<SCITEGIC>MOL_PROPERTY
W(SA)
SciTegic.value.DoubleValue
2.211

@<SCITEGIC>MOL_PROPERTY
Valence
SciTegic.value.DoubleValue
4.797

@<SCITEGIC>MOL_PROPERTY
Coulomb
SciTegic.value.DoubleValue
69.863

@<SCITEGIC>MOL_PROPERTY
VdW
SciTegic.value.DoubleValue
0.248

@<SCITEGIC>MOL_PROPERTY
VdW6
SciTegic.value.DoubleValue
-7.455

@<SCITEGIC>MOL_PROPERTY
VdW12
SciTegic.value.DoubleValue
7.702

@<SCITEGIC>MOL_PROPERTY
Bond
SciTegic.value.DoubleValue
0.232

@<SCITEGIC>MOL_PROPERTY
Angle
SciTegic.value.DoubleValue
1.219

@<SCITEGIC>MOL_PROPERTY
Pdih
SciTegic.value.DoubleValue
3.345

@<SCITEGIC>MOL_PROPERTY
Idih
SciTegic.value.DoubleValue
0.000

@<SCITEGIC>MOL_PROPERTY
Tether
SciTegic.value.DoubleValue
0.000

@<TRIPOS>MOLECULE
guest-s12_vm2.mol2 : vm2 ligand conformer 156
          26          25           1
SMALL
USER_CHARGES
 
@<TRIPOS>ATOM
       1    N1      20.701636   19.222116   25.511615 N.4        1 MOL1        -0.4857
       2    H1      20.843440   20.131392   25.046690 H          1 MOL1         0.3650
       3    H2      21.492955   18.631500   25.212621 H          1 MOL1         0.3650
       4    C1      19.391123   18.605834   25.061475 C.3        1 MOL1         0.0209
       5    H3      18.579777   19.260735   25.388961 H          1 MOL1         0.0967
       6    H4      19.284359   17.647099   25.575318 H          1 MOL1         0.0967
       7    C2      19.296062   18.383151   23.539390 C.3        1 MOL1        -0.1378
       8    H5      20.114527   17.729120   23.218573 H          1 MOL1         0.0993
       9    H6      18.366123   17.838621   23.328712 H          1 MOL1         0.0993
      10    C3      19.298853   19.712380   22.741545 C.3        1 MOL1        -0.1338
      11    H7      20.208327   20.291717   22.948125 H          1 MOL1         0.0993
      12    H8      18.460137   20.325549   23.099768 H          1 MOL1         0.0993
      13    C4      19.140911   19.513822   21.211199 C.3        1 MOL1        -0.1338
      14    H9      18.546198   18.614072   21.001756 H          1 MOL1         0.0993
      15    H10     18.553206   20.354220   20.816423 H          1 MOL1         0.0993
      16    C5      20.473979   19.466955   20.421078 C.3        1 MOL1        -0.1313
      17    H11     21.012514   20.416267   20.549784 H          1 MOL1         0.0993
      18    H12     20.240749   19.393552   19.349597 H          1 MOL1         0.0993
      19    C6      21.403136   18.294974   20.806162 C.3        1 MOL1        -0.2328
      20    H13     21.804838   18.420721   21.818866 H          1 MOL1         0.1004
      21    H14     22.258298   18.242687   20.119977 H          1 MOL1         0.1004
      22    H15     20.873095   17.335133   20.755208 H          1 MOL1         0.1004
      23    C7      20.702298   19.390768   27.024536 C.3        1 MOL1        -0.0781
      24    H16     21.650380   19.835504   27.335122 H          1 MOL1         0.0978
      25    H17     19.876106   20.044150   27.313382 H          1 MOL1         0.0978
      26    H18     20.582232   18.412365   27.494895 H          1 MOL1         0.0978
@<TRIPOS>BOND
    1     1     2    1
    2     1     3    1
    3     1     4    1
    4     4     5    1
    5     4     6    1
    6     4     7    1
    7     7     8    1
    8     7     9    1
    9     7    10    1
   10    10    11    1
   11    10    12    1
   12    10    13    1
   13    13    14    1
   14    13    15    1
   15    13    16    1
   16    16    17    1
   17    16    18    1
   18    16    19    1
   19    19    20    1
   20    19    21    1
   21    19    22    1
   22     1    23    1
   23    23    24    1
   24    23    25    1
   25    23    26    1
@<TRIPOS>SUBSTRUCTURE
       1 MOL1            1 RESIDUE      1      MOL     
@<SCITEGIC>MOL_PROPERTY
VM2 Rank
SciTegic.value.IntegerValue
156

@<SCITEGIC>MOL_PROPERTY
Conf_Id
SciTegic.value.IntegerValue
156

@<SCITEGIC>MOL_PROPERTY
Probability
SciTegic.value.DoubleValue
0.01

@<SCITEGIC>MOL_PROPERTY
Sum Probability
SciTegic.value.DoubleValue
99.89

@<SCITEGIC>MOL_PROPERTY
Delta G
SciTegic.value.DoubleValue
3.962

@<SCITEGIC>MOL_PROPERTY
G
SciTegic.value.DoubleValue
79.428

@<SCITEGIC>MOL_PROPERTY
E
SciTegic.value.DoubleValue
46.845

@<SCITEGIC>MOL_PROPERTY
-TS
SciTegic.value.DoubleValue
32.584

@<SCITEGIC>MOL_PROPERTY
U+W
SciTegic.value.DoubleValue
25.383

@<SCITEGIC>MOL_PROPERTY
U
SciTegic.value.DoubleValue
74.907

@<SCITEGIC>MOL_PROPERTY
W
SciTegic.value.DoubleValue
-49.524

@<SCITEGIC>MOL_PROPERTY
W(PB)
SciTegic.value.DoubleValue
-51.776

@<SCITEGIC>MOL_PROPERTY
W(SA)
SciTegic.value.DoubleValue
2.251

@<SCITEGIC>MOL_PROPERTY
Valence
SciTegic.value.DoubleValue
4.797

@<SCITEGIC>MOL_PROPERTY
Coulomb
SciTegic.value.DoubleValue
69.863

@<SCITEGIC>MOL_PROPERTY
VdW
SciTegic.value.DoubleValue
0.248

@<SCITEGIC>MOL_PROPERTY
VdW6
SciTegic.value.DoubleValue
-7.454

@<SCITEGIC>MOL_PROPERTY
VdW12
SciTegic.value.DoubleValue
7.702

@<SCITEGIC>MOL_PROPERTY
Bond
SciTegic.value.DoubleValue
0.232

@<SCITEGIC>MOL_PROPERTY
Angle
SciTegic.value.DoubleValue
1.219

@<SCITEGIC>MOL_PROPERTY
Pdih
SciTegic.value.DoubleValue
3.345

@<SCITEGIC>MOL_PROPERTY
Idih
SciTegic.value.DoubleValue
0.000

@<SCITEGIC>MOL_PROPERTY
Tether
SciTegic.value.DoubleValue
0.000

@<TRIPOS>MOLECULE
guest-s12_vm2.mol2 : vm2 ligand conformer 157
          26          25           1
SMALL
USER_CHARGES
 
@<TRIPOS>ATOM
       1    N1      19.665361   19.248517   25.948426 N.4        1 MOL1        -0.4857
       2    H1      19.433378   18.950502   26.909247 H          1 MOL1         0.3650
       3    H2      18.791112   19.644948   25.572558 H          1 MOL1         0.3650
       4    C1      20.085328   18.038887   25.127834 C.3        1 MOL1         0.0209
       5    H3      19.318370   17.271799   25.261815 H          1 MOL1         0.0967
       6    H4      21.018211   17.658831   25.551824 H          1 MOL1         0.0967
       7    C2      20.273241   18.301759   23.617742 C.3        1 MOL1        -0.1378
       8    H5      21.084803   19.025115   23.474982 H          1 MOL1         0.0993
       9    H6      20.594699   17.366623   23.140715 H          1 MOL1         0.0993
      10    C3      18.979973   18.809801   22.936050 C.3        1 MOL1        -0.1338
      11    H7      18.724993   19.805905   23.322079 H          1 MOL1         0.0993
      12    H8      18.147348   18.149141   23.214989 H          1 MOL1         0.0993
      13    C4      19.054814   18.869946   21.388345 C.3        1 MOL1        -0.1338
      14    H9      19.209561   17.862917   20.977084 H          1 MOL1         0.0993
      15    H10     18.068988   19.189350   21.022799 H          1 MOL1         0.0993
      16    C5      20.117312   19.849277   20.825388 C.3        1 MOL1        -0.1313
      17    H11     20.273622   20.685178   21.521427 H          1 MOL1         0.0993
      18    H12     19.725242   20.296142   19.900949 H          1 MOL1         0.0993
      19    C6      21.465592   19.169584   20.489744 C.3        1 MOL1        -0.2328
      20    H13     22.169858   19.900357   20.071559 H          1 MOL1         0.1004
      21    H14     21.329203   18.375565   19.744123 H          1 MOL1         0.1004
      22    H15     21.936077   18.724938   21.373310 H          1 MOL1         0.1004
      23    C7      20.766379   20.302227   25.983470 C.3        1 MOL1        -0.0781
      24    H16     20.442170   21.137103   26.608698 H          1 MOL1         0.0978
      25    H17     21.673362   19.859470   26.400759 H          1 MOL1         0.0978
      26    H18     20.959322   20.656675   24.968922 H          1 MOL1         0.0978
@<TRIPOS>BOND
    1     1     2    1
    2     1     3    1
    3     1     4    1
    4     4     5    1
    5     4     6    1
    6     4     7    1
    7     7     8    1
    8     7     9    1
    9     7    10    1
   10    10    11    1
   11    10    12    1
   12    10    13    1
   13    13    14    1
   14    13    15    1
   15    13    16    1
   16    16    17    1
   17    16    18    1
   18    16    19    1
   19    19    20    1
   20    19    21    1
   21    19    22    1
   22     1    23    1
   23    23    24    1
   24    23    25    1
   25    23    26    1
@<TRIPOS>SUBSTRUCTURE
       1 MOL1            1 RESIDUE      1      MOL     
@<SCITEGIC>MOL_PROPERTY
VM2 Rank
SciTegic.value.IntegerValue
157

@<SCITEGIC>MOL_PROPERTY
Conf_Id
SciTegic.value.IntegerValue
1327

@<SCITEGIC>MOL_PROPERTY
Probability
SciTegic.value.DoubleValue
0.01

@<SCITEGIC>MOL_PROPERTY
Sum Probability
SciTegic.value.DoubleValue
99.90

@<SCITEGIC>MOL_PROPERTY
Delta G
SciTegic.value.DoubleValue
3.996

@<SCITEGIC>MOL_PROPERTY
G
SciTegic.value.DoubleValue
79.462

@<SCITEGIC>MOL_PROPERTY
E
SciTegic.value.DoubleValue
46.645

@<SCITEGIC>MOL_PROPERTY
-TS
SciTegic.value.DoubleValue
32.817

@<SCITEGIC>MOL_PROPERTY
U+W
SciTegic.value.DoubleValue
25.183

@<SCITEGIC>MOL_PROPERTY
U
SciTegic.value.DoubleValue
74.888

@<SCITEGIC>MOL_PROPERTY
W
SciTegic.value.DoubleValue
-49.705

@<SCITEGIC>MOL_PROPERTY
W(PB)
SciTegic.value.DoubleValue
-51.913

@<SCITEGIC>MOL_PROPERTY
W(SA)
SciTegic.value.DoubleValue
2.209

@<SCITEGIC>MOL_PROPERTY
Valence
SciTegic.value.DoubleValue
5.066

@<SCITEGIC>MOL_PROPERTY
Coulomb
SciTegic.value.DoubleValue
69.354

@<SCITEGIC>MOL_PROPERTY
VdW
SciTegic.value.DoubleValue
0.468

@<SCITEGIC>MOL_PROPERTY
VdW6
SciTegic.value.DoubleValue
-8.349

@<SCITEGIC>MOL_PROPERTY
VdW12
SciTegic.value.DoubleValue
8.817

@<SCITEGIC>MOL_PROPERTY
Bond
SciTegic.value.DoubleValue
0.269

@<SCITEGIC>MOL_PROPERTY
Angle
SciTegic.value.DoubleValue
1.348

@<SCITEGIC>MOL_PROPERTY
Pdih
SciTegic.value.DoubleValue
3.450

@<SCITEGIC>MOL_PROPERTY
Idih
SciTegic.value.DoubleValue
0.000

@<SCITEGIC>MOL_PROPERTY
Tether
SciTegic.value.DoubleValue
0.000

@<TRIPOS>MOLECULE
guest-s12_vm2.mol2 : vm2 ligand conformer 158
          26          25           1
SMALL
USER_CHARGES
 
@<TRIPOS>ATOM
       1    N1      19.289092   18.357298   25.604066 N.4        1 MOL1        -0.4857
       2    H1      19.866863   17.502840   25.623389 H          1 MOL1         0.3650
       3    H2      18.315568   18.022800   25.682609 H          1 MOL1         0.3650
       4    C1      19.471795   19.085583   24.282969 C.3        1 MOL1         0.0209
       5    H3      18.881399   20.004366   24.321866 H          1 MOL1         0.0967
       6    H4      19.048985   18.448123   23.505221 H          1 MOL1         0.0967
       7    C2      20.938066   19.421821   23.934433 C.3        1 MOL1        -0.1378
       8    H5      21.330230   20.100332   24.702852 H          1 MOL1         0.0993
       9    H6      21.556042   18.515417   23.977671 H          1 MOL1         0.0993
      10    C3      21.096915   20.107753   22.553547 C.3        1 MOL1        -0.1338
      11    H7      22.008188   20.720891   22.585706 H          1 MOL1         0.0993
      12    H8      20.275779   20.816910   22.383640 H          1 MOL1         0.0993
      13    C4      21.239632   19.134110   21.351998 C.3        1 MOL1        -0.1338
      14    H9      21.454134   19.724290   20.450355 H          1 MOL1         0.0993
      15    H10     22.124999   18.502885   21.509751 H          1 MOL1         0.0993
      16    C5      20.023364   18.219764   21.062430 C.3        1 MOL1        -0.1313
      17    H11     19.856263   17.531314   21.900398 H          1 MOL1         0.0993
      18    H12     20.267229   17.581211   20.201860 H          1 MOL1         0.0993
      19    C6      18.728521   19.001440   20.742233 C.3        1 MOL1        -0.2328
      20    H13     18.389588   19.596960   21.598196 H          1 MOL1         0.1004
      21    H14     17.917705   18.310470   20.477691 H          1 MOL1         0.1004
      22    H15     18.879813   19.680546   19.893197 H          1 MOL1         0.1004
      23    C7      19.620615   19.262231   26.785325 C.3        1 MOL1        -0.0781
      24    H16     20.670150   19.558147   26.731259 H          1 MOL1         0.0978
      25    H17     18.982909   20.148122   26.748678 H          1 MOL1         0.0978
      26    H18     19.440785   18.716788   27.714422 H          1 MOL1         0.0978
@<TRIPOS>BOND
    1     1     2    1
    2     1     3    1
    3     1     4    1
    4     4     5    1
    5     4     6    1
    6     4     7    1
    7     7     8    1
    8     7     9    1
    9     7    10    1
   10    10    11    1
   11    10    12    1
   12    10    13    1
   13    13    14    1
   14    13    15    1
   15    13    16    1
   16    16    17    1
   17    16    18    1
   18    16    19    1
   19    19    20    1
   20    19    21    1
   21    19    22    1
   22     1    23    1
   23    23    24    1
   24    23    25    1
   25    23    26    1
@<TRIPOS>SUBSTRUCTURE
       1 MOL1            1 RESIDUE      1      MOL     
@<SCITEGIC>MOL_PROPERTY
VM2 Rank
SciTegic.value.IntegerValue
158

@<SCITEGIC>MOL_PROPERTY
Conf_Id
SciTegic.value.IntegerValue
1375

@<SCITEGIC>MOL_PROPERTY
Probability
SciTegic.value.DoubleValue
0.01

@<SCITEGIC>MOL_PROPERTY
Sum Probability
SciTegic.value.DoubleValue
99.91

@<SCITEGIC>MOL_PROPERTY
Delta G
SciTegic.value.DoubleValue
4.026

@<SCITEGIC>MOL_PROPERTY
G
SciTegic.value.DoubleValue
79.492

@<SCITEGIC>MOL_PROPERTY
E
SciTegic.value.DoubleValue
46.319

@<SCITEGIC>MOL_PROPERTY
-TS
SciTegic.value.DoubleValue
33.173

@<SCITEGIC>MOL_PROPERTY
U+W
SciTegic.value.DoubleValue
24.857

@<SCITEGIC>MOL_PROPERTY
U
SciTegic.value.DoubleValue
74.835

@<SCITEGIC>MOL_PROPERTY
W
SciTegic.value.DoubleValue
-49.977

@<SCITEGIC>MOL_PROPERTY
W(PB)
SciTegic.value.DoubleValue
-52.172

@<SCITEGIC>MOL_PROPERTY
W(SA)
SciTegic.value.DoubleValue
2.195

@<SCITEGIC>MOL_PROPERTY
Valence
SciTegic.value.DoubleValue
4.934

@<SCITEGIC>MOL_PROPERTY
Coulomb
SciTegic.value.DoubleValue
69.669

@<SCITEGIC>MOL_PROPERTY
VdW
SciTegic.value.DoubleValue
0.232

@<SCITEGIC>MOL_PROPERTY
VdW6
SciTegic.value.DoubleValue
-8.762

@<SCITEGIC>MOL_PROPERTY
VdW12
SciTegic.value.DoubleValue
8.994

@<SCITEGIC>MOL_PROPERTY
Bond
SciTegic.value.DoubleValue
0.278

@<SCITEGIC>MOL_PROPERTY
Angle
SciTegic.value.DoubleValue
1.765

@<SCITEGIC>MOL_PROPERTY
Pdih
SciTegic.value.DoubleValue
2.890

@<SCITEGIC>MOL_PROPERTY
Idih
SciTegic.value.DoubleValue
0.000

@<SCITEGIC>MOL_PROPERTY
Tether
SciTegic.value.DoubleValue
0.000

@<TRIPOS>MOLECULE
guest-s12_vm2.mol2 : vm2 ligand conformer 159
          26          25           1
SMALL
USER_CHARGES
 
@<TRIPOS>ATOM
       1    N1      20.308720   19.646603   25.250095 N.4        1 MOL1        -0.4857
       2    H1      20.916344   20.010976   24.501554 H          1 MOL1         0.3650
       3    H2      20.947840   19.270965   25.967830 H          1 MOL1         0.3650
       4    C1      19.427111   18.538915   24.707181 C.3        1 MOL1         0.0209
       5    H3      18.742834   18.972287   23.975135 H          1 MOL1         0.0967
       6    H4      18.830026   18.155458   25.538450 H          1 MOL1         0.0967
       7    C2      20.211185   17.378474   24.064445 C.3        1 MOL1        -0.1378
       8    H5      20.834668   16.906792   24.835557 H          1 MOL1         0.0993
       9    H6      19.496868   16.609005   23.742907 H          1 MOL1         0.0993
      10    C3      21.110258   17.774102   22.862402 C.3        1 MOL1        -0.1338
      11    H7      21.652639   16.870193   22.551981 H          1 MOL1         0.0993
      12    H8      21.886912   18.484938   23.174313 H          1 MOL1         0.0993
      13    C4      20.346872   18.315668   21.624886 C.3        1 MOL1        -0.1338
      14    H9      20.934307   18.070220   20.729168 H          1 MOL1         0.0993
      15    H10     19.389931   17.787814   21.511709 H          1 MOL1         0.0993
      16    C5      20.117044   19.846804   21.639332 C.3        1 MOL1        -0.1313
      17    H11     21.078778   20.364886   21.758524 H          1 MOL1         0.0993
      18    H12     19.491510   20.139972   22.489771 H          1 MOL1         0.0993
      19    C6      19.440115   20.330186   20.339061 C.3        1 MOL1        -0.2328
      20    H13     19.285493   21.416715   20.363165 H          1 MOL1         0.1004
      21    H14     18.460404   19.853730   20.203557 H          1 MOL1         0.1004
      22    H15     20.057443   20.097883   19.461484 H          1 MOL1         0.1004
      23    C7      19.446693   20.759248   25.829597 C.3        1 MOL1        -0.0781
      24    H16     18.835438   20.354685   26.639291 H          1 MOL1         0.0978
      25    H17     20.093998   21.549749   26.215861 H          1 MOL1         0.0978
      26    H18     18.802251   21.160621   25.044456 H          1 MOL1         0.0978
@<TRIPOS>BOND
    1     1     2    1
    2     1     3    1
    3     1     4    1
    4     4     5    1
    5     4     6    1
    6     4     7    1
    7     7     8    1
    8     7     9    1
    9     7    10    1
   10    10    11    1
   11    10    12    1
   12    10    13    1
   13    13    14    1
   14    13    15    1
   15    13    16    1
   16    16    17    1
   17    16    18    1
   18    16    19    1
   19    19    20    1
   20    19    21    1
   21    19    22    1
   22     1    23    1
   23    23    24    1
   24    23    25    1
   25    23    26    1
@<TRIPOS>SUBSTRUCTURE
       1 MOL1            1 RESIDUE      1      MOL     
@<SCITEGIC>MOL_PROPERTY
VM2 Rank
SciTegic.value.IntegerValue
159

@<SCITEGIC>MOL_PROPERTY
Conf_Id
SciTegic.value.IntegerValue
241

@<SCITEGIC>MOL_PROPERTY
Probability
SciTegic.value.DoubleValue
0.01

@<SCITEGIC>MOL_PROPERTY
Sum Probability
SciTegic.value.DoubleValue
99.92

@<SCITEGIC>MOL_PROPERTY
Delta G
SciTegic.value.DoubleValue
4.055

@<SCITEGIC>MOL_PROPERTY
G
SciTegic.value.DoubleValue
79.521

@<SCITEGIC>MOL_PROPERTY
E
SciTegic.value.DoubleValue
46.796

@<SCITEGIC>MOL_PROPERTY
-TS
SciTegic.value.DoubleValue
32.725

@<SCITEGIC>MOL_PROPERTY
U+W
SciTegic.value.DoubleValue
25.334

@<SCITEGIC>MOL_PROPERTY
U
SciTegic.value.DoubleValue
74.861

@<SCITEGIC>MOL_PROPERTY
W
SciTegic.value.DoubleValue
-49.527

@<SCITEGIC>MOL_PROPERTY
W(PB)
SciTegic.value.DoubleValue
-51.763

@<SCITEGIC>MOL_PROPERTY
W(SA)
SciTegic.value.DoubleValue
2.236

@<SCITEGIC>MOL_PROPERTY
Valence
SciTegic.value.DoubleValue
4.458

@<SCITEGIC>MOL_PROPERTY
Coulomb
SciTegic.value.DoubleValue
70.609

@<SCITEGIC>MOL_PROPERTY
VdW
SciTegic.value.DoubleValue
-0.205

@<SCITEGIC>MOL_PROPERTY
VdW6
SciTegic.value.DoubleValue
-8.103

@<SCITEGIC>MOL_PROPERTY
VdW12
SciTegic.value.DoubleValue
7.898

@<SCITEGIC>MOL_PROPERTY
Bond
SciTegic.value.DoubleValue
0.231

@<SCITEGIC>MOL_PROPERTY
Angle
SciTegic.value.DoubleValue
1.446

@<SCITEGIC>MOL_PROPERTY
Pdih
SciTegic.value.DoubleValue
2.781

@<SCITEGIC>MOL_PROPERTY
Idih
SciTegic.value.DoubleValue
0.000

@<SCITEGIC>MOL_PROPERTY
Tether
SciTegic.value.DoubleValue
0.000

@<TRIPOS>MOLECULE
guest-s12_vm2.mol2 : vm2 ligand conformer 160
          26          25           1
SMALL
USER_CHARGES
 
@<TRIPOS>ATOM
       1    N1      19.975063   19.496418   26.049280 N.4        1 MOL1        -0.4857
       2    H1      19.314657   20.217743   25.723514 H          1 MOL1         0.3650
       3    H2      20.382676   19.879118   26.917167 H          1 MOL1         0.3650
       4    C1      21.074802   19.289366   25.019188 C.3        1 MOL1         0.0209
       5    H3      21.742365   18.513536   25.402511 H          1 MOL1         0.0967
       6    H4      21.643676   20.220552   24.956833 H          1 MOL1         0.0967
       7    C2      20.592881   18.900220   23.604155 C.3        1 MOL1        -0.1378
       8    H5      21.482390   18.731932   22.985118 H          1 MOL1         0.0993
       9    H6      20.050271   17.947071   23.643238 H          1 MOL1         0.0993
      10    C3      19.709267   19.990046   22.949714 C.3        1 MOL1        -0.1338
      11    H7      20.290663   20.916625   22.845735 H          1 MOL1         0.0993
      12    H8      18.870436   20.228086   23.616798 H          1 MOL1         0.0993
      13    C4      19.121232   19.593411   21.570554 C.3        1 MOL1        -0.1338
      14    H9      18.448929   18.731368   21.680683 H          1 MOL1         0.0993
      15    H10     18.484123   20.422564   21.232757 H          1 MOL1         0.0993
      16    C5      20.174495   19.314748   20.467049 C.3        1 MOL1        -0.1313
      17    H11     21.088185   19.895740   20.654751 H          1 MOL1         0.0993
      18    H12     19.779693   19.676185   19.507102 H          1 MOL1         0.0993
      19    C6      20.513824   17.814104   20.307101 C.3        1 MOL1        -0.2328
      20    H13     20.933660   17.385138   21.223505 H          1 MOL1         0.1004
      21    H14     21.249630   17.670224   19.505357 H          1 MOL1         0.1004
      22    H15     19.618443   17.236169   20.043802 H          1 MOL1         0.1004
      23    C7      19.246435   18.191686   26.349960 C.3        1 MOL1        -0.0781
      24    H16     18.764617   17.829191   25.439686 H          1 MOL1         0.0978
      25    H17     19.966673   17.452962   26.708183 H          1 MOL1         0.0978
      26    H18     18.491167   18.372995   27.117902 H          1 MOL1         0.0978
@<TRIPOS>BOND
    1     1     2    1
    2     1     3    1
    3     1     4    1
    4     4     5    1
    5     4     6    1
    6     4     7    1
    7     7     8    1
    8     7     9    1
    9     7    10    1
   10    10    11    1
   11    10    12    1
   12    10    13    1
   13    13    14    1
   14    13    15    1
   15    13    16    1
   16    16    17    1
   17    16    18    1
   18    16    19    1
   19    19    20    1
   20    19    21    1
   21    19    22    1
   22     1    23    1
   23    23    24    1
   24    23    25    1
   25    23    26    1
@<TRIPOS>SUBSTRUCTURE
       1 MOL1            1 RESIDUE      1      MOL     
@<SCITEGIC>MOL_PROPERTY
VM2 Rank
SciTegic.value.IntegerValue
160

@<SCITEGIC>MOL_PROPERTY
Conf_Id
SciTegic.value.IntegerValue
964

@<SCITEGIC>MOL_PROPERTY
Probability
SciTegic.value.DoubleValue
0.01

@<SCITEGIC>MOL_PROPERTY
Sum Probability
SciTegic.value.DoubleValue
99.93

@<SCITEGIC>MOL_PROPERTY
Delta G
SciTegic.value.DoubleValue
4.068

@<SCITEGIC>MOL_PROPERTY
G
SciTegic.value.DoubleValue
79.534

@<SCITEGIC>MOL_PROPERTY
E
SciTegic.value.DoubleValue
46.742

@<SCITEGIC>MOL_PROPERTY
-TS
SciTegic.value.DoubleValue
32.792

@<SCITEGIC>MOL_PROPERTY
U+W
SciTegic.value.DoubleValue
25.280

@<SCITEGIC>MOL_PROPERTY
U
SciTegic.value.DoubleValue
74.925

@<SCITEGIC>MOL_PROPERTY
W
SciTegic.value.DoubleValue
-49.646

@<SCITEGIC>MOL_PROPERTY
W(PB)
SciTegic.value.DoubleValue
-51.851

@<SCITEGIC>MOL_PROPERTY
W(SA)
SciTegic.value.DoubleValue
2.206

@<SCITEGIC>MOL_PROPERTY
Valence
SciTegic.value.DoubleValue
5.130

@<SCITEGIC>MOL_PROPERTY
Coulomb
SciTegic.value.DoubleValue
69.227

@<SCITEGIC>MOL_PROPERTY
VdW
SciTegic.value.DoubleValue
0.568

@<SCITEGIC>MOL_PROPERTY
VdW6
SciTegic.value.DoubleValue
-8.232

@<SCITEGIC>MOL_PROPERTY
VdW12
SciTegic.value.DoubleValue
8.801

@<SCITEGIC>MOL_PROPERTY
Bond
SciTegic.value.DoubleValue
0.274

@<SCITEGIC>MOL_PROPERTY
Angle
SciTegic.value.DoubleValue
1.422

@<SCITEGIC>MOL_PROPERTY
Pdih
SciTegic.value.DoubleValue
3.434

@<SCITEGIC>MOL_PROPERTY
Idih
SciTegic.value.DoubleValue
0.000

@<SCITEGIC>MOL_PROPERTY
Tether
SciTegic.value.DoubleValue
0.000

@<TRIPOS>MOLECULE
guest-s12_vm2.mol2 : vm2 ligand conformer 161
          26          25           1
SMALL
USER_CHARGES
 
@<TRIPOS>ATOM
       1    N1      20.315041   18.841061   25.884762 N.4        1 MOL1        -0.4857
       2    H1      20.801295   18.086817   26.395024 H          1 MOL1         0.3650
       3    H2      19.490354   19.064388   26.462923 H          1 MOL1         0.3650
       4    C1      19.877732   18.333189   24.521222 C.3        1 MOL1         0.0209
       5    H3      19.374008   17.375826   24.676941 H          1 MOL1         0.0967
       6    H4      20.776317   18.150582   23.927222 H          1 MOL1         0.0967
       7    C2      18.926457   19.280455   23.759604 C.3        1 MOL1        -0.1378
       8    H5      18.056316   19.495781   24.393558 H          1 MOL1         0.0993
       9    H6      19.411309   20.245563   23.572572 H          1 MOL1         0.0993
      10    C3      18.430252   18.676782   22.424142 C.3        1 MOL1        -0.1338
      11    H7      17.749653   19.391733   21.941638 H          1 MOL1         0.0993
      12    H8      17.821081   17.789863   22.647219 H          1 MOL1         0.0993
      13    C4      19.537857   18.269784   21.414550 C.3        1 MOL1        -0.1338
      14    H9      20.181378   17.486739   21.837407 H          1 MOL1         0.0993
      15    H10     19.036766   17.799734   20.556961 H          1 MOL1         0.0993
      16    C5      20.397274   19.442564   20.874533 C.3        1 MOL1        -0.1313
      17    H11     19.797860   20.361905   20.819472 H          1 MOL1         0.0993
      18    H12     20.687327   19.210072   19.840212 H          1 MOL1         0.0993
      19    C6      21.692301   19.693457   21.681935 C.3        1 MOL1        -0.2328
      20    H13     22.293845   20.477763   21.204577 H          1 MOL1         0.1004
      21    H14     22.308369   18.786296   21.730769 H          1 MOL1         0.1004
      22    H15     21.484404   20.019416   22.705743 H          1 MOL1         0.1004
      23    C7      21.231086   20.052709   25.756252 C.3        1 MOL1        -0.0781
      24    H16     21.548346   20.367531   26.752907 H          1 MOL1         0.0978
      25    H17     22.104888   19.780132   25.160477 H          1 MOL1         0.0978
      26    H18     20.689031   20.866147   25.269920 H          1 MOL1         0.0978
@<TRIPOS>BOND
    1     1     2    1
    2     1     3    1
    3     1     4    1
    4     4     5    1
    5     4     6    1
    6     4     7    1
    7     7     8    1
    8     7     9    1
    9     7    10    1
   10    10    11    1
   11    10    12    1
   12    10    13    1
   13    13    14    1
   14    13    15    1
   15    13    16    1
   16    16    17    1
   17    16    18    1
   18    16    19    1
   19    19    20    1
   20    19    21    1
   21    19    22    1
   22     1    23    1
   23    23    24    1
   24    23    25    1
   25    23    26    1
@<TRIPOS>SUBSTRUCTURE
       1 MOL1            1 RESIDUE      1      MOL     
@<SCITEGIC>MOL_PROPERTY
VM2 Rank
SciTegic.value.IntegerValue
161

@<SCITEGIC>MOL_PROPERTY
Conf_Id
SciTegic.value.IntegerValue
154

@<SCITEGIC>MOL_PROPERTY
Probability
SciTegic.value.DoubleValue
0.01

@<SCITEGIC>MOL_PROPERTY
Sum Probability
SciTegic.value.DoubleValue
99.93

@<SCITEGIC>MOL_PROPERTY
Delta G
SciTegic.value.DoubleValue
4.070

@<SCITEGIC>MOL_PROPERTY
G
SciTegic.value.DoubleValue
79.536

@<SCITEGIC>MOL_PROPERTY
E
SciTegic.value.DoubleValue
46.352

@<SCITEGIC>MOL_PROPERTY
-TS
SciTegic.value.DoubleValue
33.184

@<SCITEGIC>MOL_PROPERTY
U+W
SciTegic.value.DoubleValue
24.891

@<SCITEGIC>MOL_PROPERTY
U
SciTegic.value.DoubleValue
75.063

@<SCITEGIC>MOL_PROPERTY
W
SciTegic.value.DoubleValue
-50.172

@<SCITEGIC>MOL_PROPERTY
W(PB)
SciTegic.value.DoubleValue
-52.327

@<SCITEGIC>MOL_PROPERTY
W(SA)
SciTegic.value.DoubleValue
2.155

@<SCITEGIC>MOL_PROPERTY
Valence
SciTegic.value.DoubleValue
5.293

@<SCITEGIC>MOL_PROPERTY
Coulomb
SciTegic.value.DoubleValue
69.832

@<SCITEGIC>MOL_PROPERTY
VdW
SciTegic.value.DoubleValue
-0.063

@<SCITEGIC>MOL_PROPERTY
VdW6
SciTegic.value.DoubleValue
-9.168

@<SCITEGIC>MOL_PROPERTY
VdW12
SciTegic.value.DoubleValue
9.105

@<SCITEGIC>MOL_PROPERTY
Bond
SciTegic.value.DoubleValue
0.277

@<SCITEGIC>MOL_PROPERTY
Angle
SciTegic.value.DoubleValue
1.740

@<SCITEGIC>MOL_PROPERTY
Pdih
SciTegic.value.DoubleValue
3.277

@<SCITEGIC>MOL_PROPERTY
Idih
SciTegic.value.DoubleValue
0.000

@<SCITEGIC>MOL_PROPERTY
Tether
SciTegic.value.DoubleValue
0.000

@<TRIPOS>MOLECULE
guest-s12_vm2.mol2 : vm2 ligand conformer 162
          26          25           1
SMALL
USER_CHARGES
 
@<TRIPOS>ATOM
       1    N1      19.681555   18.489511   25.668206 N.4        1 MOL1        -0.4857
       2    H1      20.481272   18.262147   26.279376 H          1 MOL1         0.3650
       3    H2      19.329737   17.581713   25.327079 H          1 MOL1         0.3650
       4    C1      20.139959   19.345198   24.504755 C.3        1 MOL1         0.0209
       5    H3      20.522746   20.285497   24.909309 H          1 MOL1         0.0967
       6    H4      19.265175   19.566656   23.888858 H          1 MOL1         0.0967
       7    C2      21.225133   18.671880   23.642910 C.3        1 MOL1        -0.1378
       8    H5      22.090003   18.436847   24.277351 H          1 MOL1         0.0993
       9    H6      20.861514   17.711825   23.257033 H          1 MOL1         0.0993
      10    C3      21.696269   19.566315   22.471538 C.3        1 MOL1        -0.1338
      11    H7      22.473827   19.032857   21.907583 H          1 MOL1         0.0993
      12    H8      22.187919   20.456630   22.887625 H          1 MOL1         0.0993
      13    C4      20.586998   20.031994   21.489475 C.3        1 MOL1        -0.1338
      14    H9      19.845310   20.654872   22.007204 H          1 MOL1         0.0993
      15    H10     21.062625   20.698672   20.756788 H          1 MOL1         0.0993
      16    C5      19.883790   18.893107   20.705790 C.3        1 MOL1        -0.1313
      17    H11     20.582570   18.064058   20.527112 H          1 MOL1         0.0993
      18    H12     19.610432   19.275496   19.712278 H          1 MOL1         0.0993
      19    C6      18.593666   18.372105   21.381521 C.3        1 MOL1        -0.2328
      20    H13     18.102442   17.626956   20.742507 H          1 MOL1         0.1004
      21    H14     17.879078   19.188460   21.548357 H          1 MOL1         0.1004
      22    H15     18.794886   17.893619   22.345313 H          1 MOL1         0.1004
      23    C7      18.600628   19.219890   26.452805 C.3        1 MOL1        -0.0781
      24    H16     19.005662   20.160878   26.831525 H          1 MOL1         0.0978
      25    H17     17.752340   19.420192   25.794606 H          1 MOL1         0.0978
      26    H18     18.279541   18.593746   27.288249 H          1 MOL1         0.0978
@<TRIPOS>BOND
    1     1     2    1
    2     1     3    1
    3     1     4    1
    4     4     5    1
    5     4     6    1
    6     4     7    1
    7     7     8    1
    8     7     9    1
    9     7    10    1
   10    10    11    1
   11    10    12    1
   12    10    13    1
   13    13    14    1
   14    13    15    1
   15    13    16    1
   16    16    17    1
   17    16    18    1
   18    16    19    1
   19    19    20    1
   20    19    21    1
   21    19    22    1
   22     1    23    1
   23    23    24    1
   24    23    25    1
   25    23    26    1
@<TRIPOS>SUBSTRUCTURE
       1 MOL1            1 RESIDUE      1      MOL     
@<SCITEGIC>MOL_PROPERTY
VM2 Rank
SciTegic.value.IntegerValue
162

@<SCITEGIC>MOL_PROPERTY
Conf_Id
SciTegic.value.IntegerValue
259

@<SCITEGIC>MOL_PROPERTY
Probability
SciTegic.value.DoubleValue
0.01

@<SCITEGIC>MOL_PROPERTY
Sum Probability
SciTegic.value.DoubleValue
99.94

@<SCITEGIC>MOL_PROPERTY
Delta G
SciTegic.value.DoubleValue
4.077

@<SCITEGIC>MOL_PROPERTY
G
SciTegic.value.DoubleValue
79.543

@<SCITEGIC>MOL_PROPERTY
E
SciTegic.value.DoubleValue
46.664

@<SCITEGIC>MOL_PROPERTY
-TS
SciTegic.value.DoubleValue
32.878

@<SCITEGIC>MOL_PROPERTY
U+W
SciTegic.value.DoubleValue
25.203

@<SCITEGIC>MOL_PROPERTY
U
SciTegic.value.DoubleValue
74.864

@<SCITEGIC>MOL_PROPERTY
W
SciTegic.value.DoubleValue
-49.661

@<SCITEGIC>MOL_PROPERTY
W(PB)
SciTegic.value.DoubleValue
-51.862

@<SCITEGIC>MOL_PROPERTY
W(SA)
SciTegic.value.DoubleValue
2.201

@<SCITEGIC>MOL_PROPERTY
Valence
SciTegic.value.DoubleValue
5.001

@<SCITEGIC>MOL_PROPERTY
Coulomb
SciTegic.value.DoubleValue
70.004

@<SCITEGIC>MOL_PROPERTY
VdW
SciTegic.value.DoubleValue
-0.141

@<SCITEGIC>MOL_PROPERTY
VdW6
SciTegic.value.DoubleValue
-8.153

@<SCITEGIC>MOL_PROPERTY
VdW12
SciTegic.value.DoubleValue
8.012

@<SCITEGIC>MOL_PROPERTY
Bond
SciTegic.value.DoubleValue
0.241

@<SCITEGIC>MOL_PROPERTY
Angle
SciTegic.value.DoubleValue
1.605

@<SCITEGIC>MOL_PROPERTY
Pdih
SciTegic.value.DoubleValue
3.155

@<SCITEGIC>MOL_PROPERTY
Idih
SciTegic.value.DoubleValue
0.000

@<SCITEGIC>MOL_PROPERTY
Tether
SciTegic.value.DoubleValue
0.000

@<TRIPOS>MOLECULE
guest-s12_vm2.mol2 : vm2 ligand conformer 163
          26          25           1
SMALL
USER_CHARGES
 
@<TRIPOS>ATOM
       1    N1      19.846857   19.483422   26.044761 N.4        1 MOL1        -0.4857
       2    H1      19.310906   19.770135   26.879259 H          1 MOL1         0.3650
       3    H2      20.370079   20.325041   25.761064 H          1 MOL1         0.3650
       4    C1      18.886034   19.067205   24.941594 C.3        1 MOL1         0.0209
       5    H3      18.147668   19.865707   24.832871 H          1 MOL1         0.0967
       6    H4      18.362539   18.170491   25.282688 H          1 MOL1         0.0967
       7    C2      19.534232   18.792735   23.566634 C.3        1 MOL1        -0.1378
       8    H5      20.252802   17.967456   23.650407 H          1 MOL1         0.0993
       9    H6      18.742174   18.453982   22.887927 H          1 MOL1         0.0993
      10    C3      20.225115   20.042232   22.968117 C.3        1 MOL1        -0.1338
      11    H7      20.950368   20.438753   23.690669 H          1 MOL1         0.0993
      12    H8      19.478547   20.834207   22.817151 H          1 MOL1         0.0993
      13    C4      20.975874   19.781435   21.636377 C.3        1 MOL1        -0.1338
      14    H9      21.455926   20.723866   21.338249 H          1 MOL1         0.0993
      15    H10     21.797918   19.070867   21.799398 H          1 MOL1         0.0993
      16    C5      20.079793   19.305251   20.463761 C.3        1 MOL1        -0.1313
      17    H11     20.460358   19.745425   19.531334 H          1 MOL1         0.0993
      18    H12     19.057317   19.689901   20.582925 H          1 MOL1         0.0993
      19    C6      20.060269   17.768239   20.290915 C.3        1 MOL1        -0.2328
      20    H13     19.671901   17.257196   21.178653 H          1 MOL1         0.1004
      21    H14     21.069526   17.383471   20.094964 H          1 MOL1         0.1004
      22    H15     19.426189   17.485555   19.440658 H          1 MOL1         0.1004
      23    C7      20.799826   18.349481   26.404842 C.3        1 MOL1        -0.0781
      24    H16     20.219371   17.478538   26.716788 H          1 MOL1         0.0978
      25    H17     21.407230   18.097826   25.533130 H          1 MOL1         0.0978
      26    H18     21.447559   18.673189   27.222579 H          1 MOL1         0.0978
@<TRIPOS>BOND
    1     1     2    1
    2     1     3    1
    3     1     4    1
    4     4     5    1
    5     4     6    1
    6     4     7    1
    7     7     8    1
    8     7     9    1
    9     7    10    1
   10    10    11    1
   11    10    12    1
   12    10    13    1
   13    13    14    1
   14    13    15    1
   15    13    16    1
   16    16    17    1
   17    16    18    1
   18    16    19    1
   19    19    20    1
   20    19    21    1
   21    19    22    1
   22     1    23    1
   23    23    24    1
   24    23    25    1
   25    23    26    1
@<TRIPOS>SUBSTRUCTURE
       1 MOL1            1 RESIDUE      1      MOL     
@<SCITEGIC>MOL_PROPERTY
VM2 Rank
SciTegic.value.IntegerValue
163

@<SCITEGIC>MOL_PROPERTY
Conf_Id
SciTegic.value.IntegerValue
695

@<SCITEGIC>MOL_PROPERTY
Probability
SciTegic.value.DoubleValue
0.01

@<SCITEGIC>MOL_PROPERTY
Sum Probability
SciTegic.value.DoubleValue
99.95

@<SCITEGIC>MOL_PROPERTY
Delta G
SciTegic.value.DoubleValue
4.096

@<SCITEGIC>MOL_PROPERTY
G
SciTegic.value.DoubleValue
79.562

@<SCITEGIC>MOL_PROPERTY
E
SciTegic.value.DoubleValue
46.770

@<SCITEGIC>MOL_PROPERTY
-TS
SciTegic.value.DoubleValue
32.793

@<SCITEGIC>MOL_PROPERTY
U+W
SciTegic.value.DoubleValue
25.308

@<SCITEGIC>MOL_PROPERTY
U
SciTegic.value.DoubleValue
74.926

@<SCITEGIC>MOL_PROPERTY
W
SciTegic.value.DoubleValue
-49.618

@<SCITEGIC>MOL_PROPERTY
W(PB)
SciTegic.value.DoubleValue
-51.833

@<SCITEGIC>MOL_PROPERTY
W(SA)
SciTegic.value.DoubleValue
2.215

@<SCITEGIC>MOL_PROPERTY
Valence
SciTegic.value.DoubleValue
5.130

@<SCITEGIC>MOL_PROPERTY
Coulomb
SciTegic.value.DoubleValue
69.227

@<SCITEGIC>MOL_PROPERTY
VdW
SciTegic.value.DoubleValue
0.569

@<SCITEGIC>MOL_PROPERTY
VdW6
SciTegic.value.DoubleValue
-8.233

@<SCITEGIC>MOL_PROPERTY
VdW12
SciTegic.value.DoubleValue
8.802

@<SCITEGIC>MOL_PROPERTY
Bond
SciTegic.value.DoubleValue
0.274

@<SCITEGIC>MOL_PROPERTY
Angle
SciTegic.value.DoubleValue
1.422

@<SCITEGIC>MOL_PROPERTY
Pdih
SciTegic.value.DoubleValue
3.434

@<SCITEGIC>MOL_PROPERTY
Idih
SciTegic.value.DoubleValue
0.000

@<SCITEGIC>MOL_PROPERTY
Tether
SciTegic.value.DoubleValue
0.000

@<TRIPOS>MOLECULE
guest-s12_vm2.mol2 : vm2 ligand conformer 164
          26          25           1
SMALL
USER_CHARGES
 
@<TRIPOS>ATOM
       1    N1      19.673673   19.193776   25.675294 N.4        1 MOL1        -0.4857
       2    H1      19.147967   18.417017   26.105188 H          1 MOL1         0.3650
       3    H2      18.967382   19.780320   25.205987 H          1 MOL1         0.3650
       4    C1      20.658823   18.655857   24.656164 C.3        1 MOL1         0.0209
       5    H3      21.382586   18.036111   25.191543 H          1 MOL1         0.0967
       6    H4      21.194972   19.504590   24.225791 H          1 MOL1         0.0967
       7    C2      20.006587   17.823183   23.532547 C.3        1 MOL1        -0.1378
       8    H5      20.798687   17.438756   22.881518 H          1 MOL1         0.0993
       9    H6      19.533853   16.938226   23.978664 H          1 MOL1         0.0993
      10    C3      18.945931   18.592542   22.697934 C.3        1 MOL1        -0.1338
      11    H7      18.115691   18.866042   23.362586 H          1 MOL1         0.0993
      12    H8      18.506396   17.915729   21.952435 H          1 MOL1         0.0993
      13    C4      19.455007   19.880106   21.992138 C.3        1 MOL1        -0.1338
      14    H9      18.609931   20.578675   21.919432 H          1 MOL1         0.0993
      15    H10     20.204704   20.396802   22.604227 H          1 MOL1         0.0993
      16    C5      19.999443   19.671478   20.555651 C.3        1 MOL1        -0.1313
      17    H11     20.240862   20.656528   20.132244 H          1 MOL1         0.0993
      18    H12     19.209157   19.253077   19.916806 H          1 MOL1         0.0993
      19    C6      21.256254   18.778717   20.468645 C.3        1 MOL1        -0.2328
      20    H13     22.025482   19.103203   21.181278 H          1 MOL1         0.1004
      21    H14     21.690063   18.826128   19.461450 H          1 MOL1         0.1004
      22    H15     21.012559   17.728291   20.666707 H          1 MOL1         0.1004
      23    C7      20.412282   19.994341   26.738627 C.3        1 MOL1        -0.0781
      24    H16     20.934031   20.827663   26.262962 H          1 MOL1         0.0978
      25    H17     19.691204   20.376562   27.464609 H          1 MOL1         0.0978
      26    H18     21.132570   19.344967   27.241032 H          1 MOL1         0.0978
@<TRIPOS>BOND
    1     1     2    1
    2     1     3    1
    3     1     4    1
    4     4     5    1
    5     4     6    1
    6     4     7    1
    7     7     8    1
    8     7     9    1
    9     7    10    1
   10    10    11    1
   11    10    12    1
   12    10    13    1
   13    13    14    1
   14    13    15    1
   15    13    16    1
   16    16    17    1
   17    16    18    1
   18    16    19    1
   19    19    20    1
   20    19    21    1
   21    19    22    1
   22     1    23    1
   23    23    24    1
   24    23    25    1
   25    23    26    1
@<TRIPOS>SUBSTRUCTURE
       1 MOL1            1 RESIDUE      1      MOL     
@<SCITEGIC>MOL_PROPERTY
VM2 Rank
SciTegic.value.IntegerValue
164

@<SCITEGIC>MOL_PROPERTY
Conf_Id
SciTegic.value.IntegerValue
461

@<SCITEGIC>MOL_PROPERTY
Probability
SciTegic.value.DoubleValue
0.01

@<SCITEGIC>MOL_PROPERTY
Sum Probability
SciTegic.value.DoubleValue
99.95

@<SCITEGIC>MOL_PROPERTY
Delta G
SciTegic.value.DoubleValue
4.275

@<SCITEGIC>MOL_PROPERTY
G
SciTegic.value.DoubleValue
79.741

@<SCITEGIC>MOL_PROPERTY
E
SciTegic.value.DoubleValue
47.309

@<SCITEGIC>MOL_PROPERTY
-TS
SciTegic.value.DoubleValue
32.432

@<SCITEGIC>MOL_PROPERTY
U+W
SciTegic.value.DoubleValue
25.847

@<SCITEGIC>MOL_PROPERTY
U
SciTegic.value.DoubleValue
75.364

@<SCITEGIC>MOL_PROPERTY
W
SciTegic.value.DoubleValue
-49.517

@<SCITEGIC>MOL_PROPERTY
W(PB)
SciTegic.value.DoubleValue
-51.745

@<SCITEGIC>MOL_PROPERTY
W(SA)
SciTegic.value.DoubleValue
2.229

@<SCITEGIC>MOL_PROPERTY
Valence
SciTegic.value.DoubleValue
5.262

@<SCITEGIC>MOL_PROPERTY
Coulomb
SciTegic.value.DoubleValue
69.864

@<SCITEGIC>MOL_PROPERTY
VdW
SciTegic.value.DoubleValue
0.239

@<SCITEGIC>MOL_PROPERTY
VdW6
SciTegic.value.DoubleValue
-8.243

@<SCITEGIC>MOL_PROPERTY
VdW12
SciTegic.value.DoubleValue
8.482

@<SCITEGIC>MOL_PROPERTY
Bond
SciTegic.value.DoubleValue
0.287

@<SCITEGIC>MOL_PROPERTY
Angle
SciTegic.value.DoubleValue
1.780

@<SCITEGIC>MOL_PROPERTY
Pdih
SciTegic.value.DoubleValue
3.195

@<SCITEGIC>MOL_PROPERTY
Idih
SciTegic.value.DoubleValue
0.000

@<SCITEGIC>MOL_PROPERTY
Tether
SciTegic.value.DoubleValue
0.000

@<TRIPOS>MOLECULE
guest-s12_vm2.mol2 : vm2 ligand conformer 165
          26          25           1
SMALL
USER_CHARGES
 
@<TRIPOS>ATOM
       1    N1      20.228885   19.250016   25.696353 N.4        1 MOL1        -0.4857
       2    H1      20.832482   19.971297   25.273795 H          1 MOL1         0.3650
       3    H2      20.869983   18.592315   26.166411 H          1 MOL1         0.3650
       4    C1      19.446208   18.532123   24.614428 C.3        1 MOL1         0.0209
       5    H3      18.780497   19.258231   24.142606 H          1 MOL1         0.0967
       6    H4      18.827554   17.774394   25.101937 H          1 MOL1         0.0967
       7    C2      20.329908   17.857796   23.544075 C.3        1 MOL1        -0.1378
       8    H5      20.940261   17.083601   24.027540 H          1 MOL1         0.0993
       9    H6      19.679194   17.325952   22.842085 H          1 MOL1         0.0993
      10    C3      21.267591   18.832810   22.780172 C.3        1 MOL1        -0.1338
      11    H7      21.887021   18.264884   22.072499 H          1 MOL1         0.0993
      12    H8      21.975958   19.265223   23.499261 H          1 MOL1         0.0993
      13    C4      20.557466   19.994248   22.030592 C.3        1 MOL1        -0.1338
      14    H9      19.675867   20.341553   22.583621 H          1 MOL1         0.0993
      15    H10     21.244424   20.851708   22.013653 H          1 MOL1         0.0993
      16    C5      20.171664   19.689382   20.560344 C.3        1 MOL1        -0.1313
      17    H11     21.074704   19.447226   19.982751 H          1 MOL1         0.0993
      18    H12     19.763870   20.607021   20.113664 H          1 MOL1         0.0993
      19    C6      19.134753   18.558010   20.390086 C.3        1 MOL1        -0.2328
      20    H13     19.574089   17.578742   20.613815 H          1 MOL1         0.1004
      21    H14     18.774434   18.522206   19.353860 H          1 MOL1         0.1004
      22    H15     18.265806   18.712582   21.042687 H          1 MOL1         0.1004
      23    C7      19.271526   19.875615   26.700950 C.3        1 MOL1        -0.0781
      24    H16     18.664686   19.089705   27.155925 H          1 MOL1         0.0978
      25    H17     19.848138   20.389940   27.473017 H          1 MOL1         0.0978
      26    H18     18.626012   20.589902   26.185190 H          1 MOL1         0.0978
@<TRIPOS>BOND
    1     1     2    1
    2     1     3    1
    3     1     4    1
    4     4     5    1
    5     4     6    1
    6     4     7    1
    7     7     8    1
    8     7     9    1
    9     7    10    1
   10    10    11    1
   11    10    12    1
   12    10    13    1
   13    13    14    1
   14    13    15    1
   15    13    16    1
   16    16    17    1
   17    16    18    1
   18    16    19    1
   19    19    20    1
   20    19    21    1
   21    19    22    1
   22     1    23    1
   23    23    24    1
   24    23    25    1
   25    23    26    1
@<TRIPOS>SUBSTRUCTURE
       1 MOL1            1 RESIDUE      1      MOL     
@<SCITEGIC>MOL_PROPERTY
VM2 Rank
SciTegic.value.IntegerValue
165

@<SCITEGIC>MOL_PROPERTY
Conf_Id
SciTegic.value.IntegerValue
188

@<SCITEGIC>MOL_PROPERTY
Probability
SciTegic.value.DoubleValue
0.01

@<SCITEGIC>MOL_PROPERTY
Sum Probability
SciTegic.value.DoubleValue
99.96

@<SCITEGIC>MOL_PROPERTY
Delta G
SciTegic.value.DoubleValue
4.279

@<SCITEGIC>MOL_PROPERTY
G
SciTegic.value.DoubleValue
79.745

@<SCITEGIC>MOL_PROPERTY
E
SciTegic.value.DoubleValue
47.306

@<SCITEGIC>MOL_PROPERTY
-TS
SciTegic.value.DoubleValue
32.439

@<SCITEGIC>MOL_PROPERTY
U+W
SciTegic.value.DoubleValue
25.844

@<SCITEGIC>MOL_PROPERTY
U
SciTegic.value.DoubleValue
75.361

@<SCITEGIC>MOL_PROPERTY
W
SciTegic.value.DoubleValue
-49.517

@<SCITEGIC>MOL_PROPERTY
W(PB)
SciTegic.value.DoubleValue
-51.733

@<SCITEGIC>MOL_PROPERTY
W(SA)
SciTegic.value.DoubleValue
2.216

@<SCITEGIC>MOL_PROPERTY
Valence
SciTegic.value.DoubleValue
5.260

@<SCITEGIC>MOL_PROPERTY
Coulomb
SciTegic.value.DoubleValue
69.861

@<SCITEGIC>MOL_PROPERTY
VdW
SciTegic.value.DoubleValue
0.240

@<SCITEGIC>MOL_PROPERTY
VdW6
SciTegic.value.DoubleValue
-8.240

@<SCITEGIC>MOL_PROPERTY
VdW12
SciTegic.value.DoubleValue
8.480

@<SCITEGIC>MOL_PROPERTY
Bond
SciTegic.value.DoubleValue
0.287

@<SCITEGIC>MOL_PROPERTY
Angle
SciTegic.value.DoubleValue
1.772

@<SCITEGIC>MOL_PROPERTY
Pdih
SciTegic.value.DoubleValue
3.201

@<SCITEGIC>MOL_PROPERTY
Idih
SciTegic.value.DoubleValue
0.000

@<SCITEGIC>MOL_PROPERTY
Tether
SciTegic.value.DoubleValue
0.000

@<TRIPOS>MOLECULE
guest-s12_vm2.mol2 : vm2 ligand conformer 166
          26          25           1
SMALL
USER_CHARGES
 
@<TRIPOS>ATOM
       1    N1      18.980911   19.352942   25.007357 N.4        1 MOL1        -0.4857
       2    H1      17.982453   19.108355   25.102191 H          1 MOL1         0.3650
       3    H2      19.018054   20.064195   24.262561 H          1 MOL1         0.3650
       4    C1      19.771209   18.122797   24.589589 C.3        1 MOL1         0.0209
       5    H3      19.259251   17.670882   23.737719 H          1 MOL1         0.0967
       6    H4      19.730266   17.408519   25.415775 H          1 MOL1         0.0967
       7    C2      21.245126   18.387371   24.213080 C.3        1 MOL1        -0.1378
       8    H5      21.785566   18.715246   25.110473 H          1 MOL1         0.0993
       9    H6      21.707746   17.435774   23.920014 H          1 MOL1         0.0993
      10    C3      21.465962   19.431864   23.086203 C.3        1 MOL1        -0.1338
      11    H7      22.549725   19.592921   23.002583 H          1 MOL1         0.0993
      12    H8      21.049783   20.406739   23.372953 H          1 MOL1         0.0993
      13    C4      20.944764   19.009677   21.687122 C.3        1 MOL1        -0.1338
      14    H9      21.548003   19.529975   20.930144 H          1 MOL1         0.0993
      15    H10     21.121004   17.936985   21.527770 H          1 MOL1         0.0993
      16    C5      19.457330   19.352237   21.429228 C.3        1 MOL1        -0.1313
      17    H11     19.286024   20.422386   21.610675 H          1 MOL1         0.0993
      18    H12     18.806344   18.803686   22.118751 H          1 MOL1         0.0993
      19    C6      19.040447   19.011601   19.982532 C.3        1 MOL1        -0.2328
      20    H13     19.171843   17.941489   19.775608 H          1 MOL1         0.1004
      21    H14     19.638040   19.576245   19.255028 H          1 MOL1         0.1004
      22    H15     17.984360   19.259655   19.814647 H          1 MOL1         0.1004
      23    C7      19.502251   19.921512   26.321890 C.3        1 MOL1        -0.0781
      24    H16     19.436808   19.153564   27.095661 H          1 MOL1         0.0978
      25    H17     20.541357   20.231505   26.194020 H          1 MOL1         0.0978
      26    H18     18.893802   20.783251   26.605085 H          1 MOL1         0.0978
@<TRIPOS>BOND
    1     1     2    1
    2     1     3    1
    3     1     4    1
    4     4     5    1
    5     4     6    1
    6     4     7    1
    7     7     8    1
    8     7     9    1
    9     7    10    1
   10    10    11    1
   11    10    12    1
   12    10    13    1
   13    13    14    1
   14    13    15    1
   15    13    16    1
   16    16    17    1
   17    16    18    1
   18    16    19    1
   19    19    20    1
   20    19    21    1
   21    19    22    1
   22     1    23    1
   23    23    24    1
   24    23    25    1
   25    23    26    1
@<TRIPOS>SUBSTRUCTURE
       1 MOL1            1 RESIDUE      1      MOL     
@<SCITEGIC>MOL_PROPERTY
VM2 Rank
SciTegic.value.IntegerValue
166

@<SCITEGIC>MOL_PROPERTY
Conf_Id
SciTegic.value.IntegerValue
1093

@<SCITEGIC>MOL_PROPERTY
Probability
SciTegic.value.DoubleValue
0.01

@<SCITEGIC>MOL_PROPERTY
Sum Probability
SciTegic.value.DoubleValue
99.96

@<SCITEGIC>MOL_PROPERTY
Delta G
SciTegic.value.DoubleValue
4.290

@<SCITEGIC>MOL_PROPERTY
G
SciTegic.value.DoubleValue
79.756

@<SCITEGIC>MOL_PROPERTY
E
SciTegic.value.DoubleValue
46.886

@<SCITEGIC>MOL_PROPERTY
-TS
SciTegic.value.DoubleValue
32.869

@<SCITEGIC>MOL_PROPERTY
U+W
SciTegic.value.DoubleValue
25.424

@<SCITEGIC>MOL_PROPERTY
U
SciTegic.value.DoubleValue
75.499

@<SCITEGIC>MOL_PROPERTY
W
SciTegic.value.DoubleValue
-50.074

@<SCITEGIC>MOL_PROPERTY
W(PB)
SciTegic.value.DoubleValue
-52.287

@<SCITEGIC>MOL_PROPERTY
W(SA)
SciTegic.value.DoubleValue
2.213

@<SCITEGIC>MOL_PROPERTY
Valence
SciTegic.value.DoubleValue
4.692

@<SCITEGIC>MOL_PROPERTY
Coulomb
SciTegic.value.DoubleValue
70.717

@<SCITEGIC>MOL_PROPERTY
VdW
SciTegic.value.DoubleValue
0.090

@<SCITEGIC>MOL_PROPERTY
VdW6
SciTegic.value.DoubleValue
-8.741

@<SCITEGIC>MOL_PROPERTY
VdW12
SciTegic.value.DoubleValue
8.830

@<SCITEGIC>MOL_PROPERTY
Bond
SciTegic.value.DoubleValue
0.270

@<SCITEGIC>MOL_PROPERTY
Angle
SciTegic.value.DoubleValue
1.624

@<SCITEGIC>MOL_PROPERTY
Pdih
SciTegic.value.DoubleValue
2.799

@<SCITEGIC>MOL_PROPERTY
Idih
SciTegic.value.DoubleValue
0.000

@<SCITEGIC>MOL_PROPERTY
Tether
SciTegic.value.DoubleValue
0.000

@<TRIPOS>MOLECULE
guest-s12_vm2.mol2 : vm2 ligand conformer 167
          26          25           1
SMALL
USER_CHARGES
 
@<TRIPOS>ATOM
       1    N1      20.919388   19.551679   25.076031 N.4        1 MOL1        -0.4857
       2    H1      20.791150   20.245963   24.325360 H          1 MOL1         0.3650
       3    H2      21.937548   19.513820   25.242328 H          1 MOL1         0.3650
       4    C1      20.426020   18.189930   24.612797 C.3        1 MOL1         0.0209
       5    H3      20.552932   17.492859   25.444924 H          1 MOL1         0.0967
       6    H4      21.077297   17.857282   23.802123 H          1 MOL1         0.0967
       7    C2      18.959120   18.152991   24.132138 C.3        1 MOL1        -0.1378
       8    H5      18.720635   17.129508   23.814255 H          1 MOL1         0.0993
       9    H6      18.301976   18.358091   24.987117 H          1 MOL1         0.0993
      10    C3      18.610623   19.139094   22.985085 C.3        1 MOL1        -0.1338
      11    H7      18.799479   20.176004   23.293243 H          1 MOL1         0.0993
      12    H8      17.525278   19.077762   22.824651 H          1 MOL1         0.0993
      13    C4      19.303203   18.841324   21.628993 C.3        1 MOL1        -0.1338
      14    H9      19.359632   17.756343   21.465425 H          1 MOL1         0.0993
      15    H10     18.661531   19.233953   20.827919 H          1 MOL1         0.0993
      16    C5      20.704665   19.480083   21.473395 C.3        1 MOL1        -0.1313
      17    H11     21.403439   19.069846   22.210658 H          1 MOL1         0.0993
      18    H12     20.642415   20.561399   21.658793 H          1 MOL1         0.0993
      19    C6      21.282100   19.241514   20.061869 C.3        1 MOL1        -0.2328
      20    H13     21.385083   18.168510   19.853833 H          1 MOL1         0.1004
      21    H14     22.275115   19.699632   19.966559 H          1 MOL1         0.1004
      22    H15     20.634878   19.678628   19.290349 H          1 MOL1         0.1004
      23    C7      20.202881   19.993385   26.346693 C.3        1 MOL1        -0.0781
      24    H16     20.602720   20.958496   26.665590 H          1 MOL1         0.0978
      25    H17     19.134077   20.087287   26.144133 H          1 MOL1         0.0978
      26    H18     20.368221   19.249115   27.128660 H          1 MOL1         0.0978
@<TRIPOS>BOND
    1     1     2    1
    2     1     3    1
    3     1     4    1
    4     4     5    1
    5     4     6    1
    6     4     7    1
    7     7     8    1
    8     7     9    1
    9     7    10    1
   10    10    11    1
   11    10    12    1
   12    10    13    1
   13    13    14    1
   14    13    15    1
   15    13    16    1
   16    16    17    1
   17    16    18    1
   18    16    19    1
   19    19    20    1
   20    19    21    1
   21    19    22    1
   22     1    23    1
   23    23    24    1
   24    23    25    1
   25    23    26    1
@<TRIPOS>SUBSTRUCTURE
       1 MOL1            1 RESIDUE      1      MOL     
@<SCITEGIC>MOL_PROPERTY
VM2 Rank
SciTegic.value.IntegerValue
167

@<SCITEGIC>MOL_PROPERTY
Conf_Id
SciTegic.value.IntegerValue
229

@<SCITEGIC>MOL_PROPERTY
Probability
SciTegic.value.DoubleValue
0.00

@<SCITEGIC>MOL_PROPERTY
Sum Probability
SciTegic.value.DoubleValue
99.97

@<SCITEGIC>MOL_PROPERTY
Delta G
SciTegic.value.DoubleValue
4.389

@<SCITEGIC>MOL_PROPERTY
G
SciTegic.value.DoubleValue
79.855

@<SCITEGIC>MOL_PROPERTY
E
SciTegic.value.DoubleValue
46.985

@<SCITEGIC>MOL_PROPERTY
-TS
SciTegic.value.DoubleValue
32.870

@<SCITEGIC>MOL_PROPERTY
U+W
SciTegic.value.DoubleValue
25.523

@<SCITEGIC>MOL_PROPERTY
U
SciTegic.value.DoubleValue
75.499

@<SCITEGIC>MOL_PROPERTY
W
SciTegic.value.DoubleValue
-49.976

@<SCITEGIC>MOL_PROPERTY
W(PB)
SciTegic.value.DoubleValue
-52.163

@<SCITEGIC>MOL_PROPERTY
W(SA)
SciTegic.value.DoubleValue
2.187

@<SCITEGIC>MOL_PROPERTY
Valence
SciTegic.value.DoubleValue
4.692

@<SCITEGIC>MOL_PROPERTY
Coulomb
SciTegic.value.DoubleValue
70.717

@<SCITEGIC>MOL_PROPERTY
VdW
SciTegic.value.DoubleValue
0.090

@<SCITEGIC>MOL_PROPERTY
VdW6
SciTegic.value.DoubleValue
-8.740

@<SCITEGIC>MOL_PROPERTY
VdW12
SciTegic.value.DoubleValue
8.830

@<SCITEGIC>MOL_PROPERTY
Bond
SciTegic.value.DoubleValue
0.270

@<SCITEGIC>MOL_PROPERTY
Angle
SciTegic.value.DoubleValue
1.624

@<SCITEGIC>MOL_PROPERTY
Pdih
SciTegic.value.DoubleValue
2.799

@<SCITEGIC>MOL_PROPERTY
Idih
SciTegic.value.DoubleValue
0.000

@<SCITEGIC>MOL_PROPERTY
Tether
SciTegic.value.DoubleValue
0.000

@<TRIPOS>MOLECULE
guest-s12_vm2.mol2 : vm2 ligand conformer 168
          26          25           1
SMALL
USER_CHARGES
 
@<TRIPOS>ATOM
       1    N1      20.135429   19.290954   25.546037 N.4        1 MOL1        -0.4857
       2    H1      20.893843   19.882729   25.175139 H          1 MOL1         0.3650
       3    H2      20.596429   18.603817   26.162339 H          1 MOL1         0.3650
       4    C1      19.430554   18.580122   24.407698 C.3        1 MOL1         0.0209
       5    H3      18.949462   19.338391   23.785498 H          1 MOL1         0.0967
       6    H4      18.650129   17.950450   24.842397 H          1 MOL1         0.0967
       7    C2      20.366439   17.713407   23.540309 C.3        1 MOL1        -0.1378
       8    H5      20.820227   16.937079   24.170431 H          1 MOL1         0.0993
       9    H6      19.772389   17.175480   22.791663 H          1 MOL1         0.0993
      10    C3      21.489820   18.514428   22.834572 C.3        1 MOL1        -0.1338
      11    H7      22.076656   17.825564   22.211454 H          1 MOL1         0.0993
      12    H8      22.189772   18.889007   23.593470 H          1 MOL1         0.0993
      13    C4      21.022024   19.711094   21.962134 C.3        1 MOL1        -0.1338
      14    H9      20.491546   20.455397   22.570803 H          1 MOL1         0.0993
      15    H10     21.926331   20.222402   21.603933 H          1 MOL1         0.0993
      16    C5      20.176035   19.327246   20.720107 C.3        1 MOL1        -0.1313
      17    H11     20.499139   18.354762   20.323388 H          1 MOL1         0.0993
      18    H12     20.379772   20.058849   19.925592 H          1 MOL1         0.0993
      19    C6      18.650668   19.322578   20.975319 C.3        1 MOL1        -0.2328
      20    H13     18.352005   18.545062   21.685684 H          1 MOL1         0.1004
      21    H14     18.108235   19.135349   20.039577 H          1 MOL1         0.1004
      22    H15     18.313205   20.291279   21.366003 H          1 MOL1         0.1004
      23    C7      19.137032   20.130170   26.330824 C.3        1 MOL1        -0.0781
      24    H16     19.657905   20.637222   27.146103 H          1 MOL1         0.0978
      25    H17     18.686826   20.869183   25.664437 H          1 MOL1         0.0978
      26    H18     18.361488   19.477737   26.737967 H          1 MOL1         0.0978
@<TRIPOS>BOND
    1     1     2    1
    2     1     3    1
    3     1     4    1
    4     4     5    1
    5     4     6    1
    6     4     7    1
    7     7     8    1
    8     7     9    1
    9     7    10    1
   10    10    11    1
   11    10    12    1
   12    10    13    1
   13    13    14    1
   14    13    15    1
   15    13    16    1
   16    16    17    1
   17    16    18    1
   18    16    19    1
   19    19    20    1
   20    19    21    1
   21    19    22    1
   22     1    23    1
   23    23    24    1
   24    23    25    1
   25    23    26    1
@<TRIPOS>SUBSTRUCTURE
       1 MOL1            1 RESIDUE      1      MOL     
@<SCITEGIC>MOL_PROPERTY
VM2 Rank
SciTegic.value.IntegerValue
168

@<SCITEGIC>MOL_PROPERTY
Conf_Id
SciTegic.value.IntegerValue
462

@<SCITEGIC>MOL_PROPERTY
Probability
SciTegic.value.DoubleValue
0.00

@<SCITEGIC>MOL_PROPERTY
Sum Probability
SciTegic.value.DoubleValue
99.97

@<SCITEGIC>MOL_PROPERTY
Delta G
SciTegic.value.DoubleValue
4.478

@<SCITEGIC>MOL_PROPERTY
G
SciTegic.value.DoubleValue
79.944

@<SCITEGIC>MOL_PROPERTY
E
SciTegic.value.DoubleValue
46.916

@<SCITEGIC>MOL_PROPERTY
-TS
SciTegic.value.DoubleValue
33.028

@<SCITEGIC>MOL_PROPERTY
U+W
SciTegic.value.DoubleValue
25.454

@<SCITEGIC>MOL_PROPERTY
U
SciTegic.value.DoubleValue
75.078

@<SCITEGIC>MOL_PROPERTY
W
SciTegic.value.DoubleValue
-49.624

@<SCITEGIC>MOL_PROPERTY
W(PB)
SciTegic.value.DoubleValue
-51.822

@<SCITEGIC>MOL_PROPERTY
W(SA)
SciTegic.value.DoubleValue
2.198

@<SCITEGIC>MOL_PROPERTY
Valence
SciTegic.value.DoubleValue
5.122

@<SCITEGIC>MOL_PROPERTY
Coulomb
SciTegic.value.DoubleValue
70.113

@<SCITEGIC>MOL_PROPERTY
VdW
SciTegic.value.DoubleValue
-0.157

@<SCITEGIC>MOL_PROPERTY
VdW6
SciTegic.value.DoubleValue
-8.845

@<SCITEGIC>MOL_PROPERTY
VdW12
SciTegic.value.DoubleValue
8.688

@<SCITEGIC>MOL_PROPERTY
Bond
SciTegic.value.DoubleValue
0.261

@<SCITEGIC>MOL_PROPERTY
Angle
SciTegic.value.DoubleValue
1.747

@<SCITEGIC>MOL_PROPERTY
Pdih
SciTegic.value.DoubleValue
3.115

@<SCITEGIC>MOL_PROPERTY
Idih
SciTegic.value.DoubleValue
0.000

@<SCITEGIC>MOL_PROPERTY
Tether
SciTegic.value.DoubleValue
0.000

@<TRIPOS>MOLECULE
guest-s12_vm2.mol2 : vm2 ligand conformer 169
          26          25           1
SMALL
USER_CHARGES
 
@<TRIPOS>ATOM
       1    N1      19.766360   19.252861   25.533095 N.4        1 MOL1        -0.4857
       2    H1      19.413115   18.481692   26.120480 H          1 MOL1         0.3650
       3    H2      18.931102   19.680357   25.105841 H          1 MOL1         0.3650
       4    C1      20.679186   18.708963   24.451951 C.3        1 MOL1         0.0209
       5    H3      21.539223   18.248437   24.944663 H          1 MOL1         0.0967
       6    H4      21.037925   19.553892   23.859536 H          1 MOL1         0.0967
       7    C2      20.002629   17.676020   23.527433 C.3        1 MOL1        -0.1378
       8    H5      20.744747   17.275874   22.826093 H          1 MOL1         0.0993
       9    H6      19.673607   16.818966   24.129816 H          1 MOL1         0.0993
      10    C3      18.791788   18.236391   22.739059 C.3        1 MOL1        -0.1338
      11    H7      17.978889   18.455127   23.444409 H          1 MOL1         0.0993
      12    H8      18.402625   17.446869   22.081492 H          1 MOL1         0.0993
      13    C4      19.065851   19.509423   21.892733 C.3        1 MOL1        -0.1338
      14    H9      18.103672   19.828283   21.468405 H          1 MOL1         0.0993
      15    H10     19.389638   20.341857   22.531552 H          1 MOL1         0.0993
      16    C5      20.057106   19.314807   20.715782 C.3        1 MOL1        -0.1313
      17    H11     19.764630   19.995073   19.903561 H          1 MOL1         0.0993
      18    H12     19.967577   18.299686   20.304659 H          1 MOL1         0.0993
      19    C6      21.529721   19.619386   21.077079 C.3        1 MOL1        -0.2328
      20    H13     22.163071   19.553139   20.182997 H          1 MOL1         0.1004
      21    H14     21.930104   18.914171   21.812413 H          1 MOL1         0.1004
      22    H15     21.634474   20.633805   21.483131 H          1 MOL1         0.1004
      23    C7      20.515358   20.272149   26.379868 C.3        1 MOL1        -0.0781
      24    H16     20.851026   21.092259   25.741399 H          1 MOL1         0.0978
      25    H17     19.846329   20.656431   27.153055 H          1 MOL1         0.0978
      26    H18     21.377147   19.788481   26.844939 H          1 MOL1         0.0978
@<TRIPOS>BOND
    1     1     2    1
    2     1     3    1
    3     1     4    1
    4     4     5    1
    5     4     6    1
    6     4     7    1
    7     7     8    1
    8     7     9    1
    9     7    10    1
   10    10    11    1
   11    10    12    1
   12    10    13    1
   13    13    14    1
   14    13    15    1
   15    13    16    1
   16    16    17    1
   17    16    18    1
   18    16    19    1
   19    19    20    1
   20    19    21    1
   21    19    22    1
   22     1    23    1
   23    23    24    1
   24    23    25    1
   25    23    26    1
@<TRIPOS>SUBSTRUCTURE
       1 MOL1            1 RESIDUE      1      MOL     
@<SCITEGIC>MOL_PROPERTY
VM2 Rank
SciTegic.value.IntegerValue
169

@<SCITEGIC>MOL_PROPERTY
Conf_Id
SciTegic.value.IntegerValue
448

@<SCITEGIC>MOL_PROPERTY
Probability
SciTegic.value.DoubleValue
0.00

@<SCITEGIC>MOL_PROPERTY
Sum Probability
SciTegic.value.DoubleValue
99.98

@<SCITEGIC>MOL_PROPERTY
Delta G
SciTegic.value.DoubleValue
4.535

@<SCITEGIC>MOL_PROPERTY
G
SciTegic.value.DoubleValue
80.001

@<SCITEGIC>MOL_PROPERTY
E
SciTegic.value.DoubleValue
46.972

@<SCITEGIC>MOL_PROPERTY
-TS
SciTegic.value.DoubleValue
33.028

@<SCITEGIC>MOL_PROPERTY
U+W
SciTegic.value.DoubleValue
25.510

@<SCITEGIC>MOL_PROPERTY
U
SciTegic.value.DoubleValue
75.077

@<SCITEGIC>MOL_PROPERTY
W
SciTegic.value.DoubleValue
-49.567

@<SCITEGIC>MOL_PROPERTY
W(PB)
SciTegic.value.DoubleValue
-51.764

@<SCITEGIC>MOL_PROPERTY
W(SA)
SciTegic.value.DoubleValue
2.197

@<SCITEGIC>MOL_PROPERTY
Valence
SciTegic.value.DoubleValue
5.122

@<SCITEGIC>MOL_PROPERTY
Coulomb
SciTegic.value.DoubleValue
70.113

@<SCITEGIC>MOL_PROPERTY
VdW
SciTegic.value.DoubleValue
-0.158

@<SCITEGIC>MOL_PROPERTY
VdW6
SciTegic.value.DoubleValue
-8.844

@<SCITEGIC>MOL_PROPERTY
VdW12
SciTegic.value.DoubleValue
8.687

@<SCITEGIC>MOL_PROPERTY
Bond
SciTegic.value.DoubleValue
0.261

@<SCITEGIC>MOL_PROPERTY
Angle
SciTegic.value.DoubleValue
1.747

@<SCITEGIC>MOL_PROPERTY
Pdih
SciTegic.value.DoubleValue
3.115

@<SCITEGIC>MOL_PROPERTY
Idih
SciTegic.value.DoubleValue
0.000

@<SCITEGIC>MOL_PROPERTY
Tether
SciTegic.value.DoubleValue
0.000

@<TRIPOS>MOLECULE
guest-s12_vm2.mol2 : vm2 ligand conformer 170
          26          25           1
SMALL
USER_CHARGES
 
@<TRIPOS>ATOM
       1    N1      19.300850   18.758553   25.603288 N.4        1 MOL1        -0.4857
       2    H1      18.725778   18.024192   26.045636 H          1 MOL1         0.3650
       3    H2      18.629140   19.370035   25.115814 H          1 MOL1         0.3650
       4    C1      20.251039   18.126841   24.598452 C.3        1 MOL1         0.0209
       5    H3      19.658745   17.469636   23.957622 H          1 MOL1         0.0967
       6    H4      20.954500   17.502634   25.155176 H          1 MOL1         0.0967
       7    C2      21.034704   19.124836   23.715281 C.3        1 MOL1        -0.1378
       8    H5      21.718356   19.703632   24.349572 H          1 MOL1         0.0993
       9    H6      21.677578   18.554386   23.036815 H          1 MOL1         0.0993
      10    C3      20.139838   20.108452   22.912620 C.3        1 MOL1        -0.1338
      11    H7      20.775729   20.811217   22.357031 H          1 MOL1         0.0993
      12    H8      19.582473   20.728282   23.627582 H          1 MOL1         0.0993
      13    C4      19.126434   19.445058   21.939184 C.3        1 MOL1        -0.1338
      14    H9      18.751567   18.497038   22.344677 H          1 MOL1         0.0993
      15    H10     18.246693   20.100049   21.872490 H          1 MOL1         0.0993
      16    C5      19.647893   19.231039   20.495036 C.3        1 MOL1        -0.1313
      17    H11     19.920355   20.199260   20.052262 H          1 MOL1         0.0993
      18    H12     18.821930   18.840553   19.884157 H          1 MOL1         0.0993
      19    C6      20.843674   18.260630   20.382448 C.3        1 MOL1        -0.2328
      20    H13     21.043334   18.019943   19.330272 H          1 MOL1         0.1004
      21    H14     20.643454   17.319233   20.910203 H          1 MOL1         0.1004
      22    H15     21.757846   18.706575   20.791826 H          1 MOL1         0.1004
      23    C7      20.063568   19.534592   26.670689 C.3        1 MOL1        -0.0781
      24    H16     20.621090   20.345595   26.197796 H          1 MOL1         0.0978
      25    H17     19.352136   19.947751   27.389141 H          1 MOL1         0.0978
      26    H18     20.753086   18.858855   27.181275 H          1 MOL1         0.0978
@<TRIPOS>BOND
    1     1     2    1
    2     1     3    1
    3     1     4    1
    4     4     5    1
    5     4     6    1
    6     4     7    1
    7     7     8    1
    8     7     9    1
    9     7    10    1
   10    10    11    1
   11    10    12    1
   12    10    13    1
   13    13    14    1
   14    13    15    1
   15    13    16    1
   16    16    17    1
   17    16    18    1
   18    16    19    1
   19    19    20    1
   20    19    21    1
   21    19    22    1
   22     1    23    1
   23    23    24    1
   24    23    25    1
   25    23    26    1
@<TRIPOS>SUBSTRUCTURE
       1 MOL1            1 RESIDUE      1      MOL     
@<SCITEGIC>MOL_PROPERTY
VM2 Rank
SciTegic.value.IntegerValue
170

@<SCITEGIC>MOL_PROPERTY
Conf_Id
SciTegic.value.IntegerValue
1109

@<SCITEGIC>MOL_PROPERTY
Probability
SciTegic.value.DoubleValue
0.00

@<SCITEGIC>MOL_PROPERTY
Sum Probability
SciTegic.value.DoubleValue
99.98

@<SCITEGIC>MOL_PROPERTY
Delta G
SciTegic.value.DoubleValue
4.582

@<SCITEGIC>MOL_PROPERTY
G
SciTegic.value.DoubleValue
80.048

@<SCITEGIC>MOL_PROPERTY
E
SciTegic.value.DoubleValue
47.259

@<SCITEGIC>MOL_PROPERTY
-TS
SciTegic.value.DoubleValue
32.789

@<SCITEGIC>MOL_PROPERTY
U+W
SciTegic.value.DoubleValue
25.797

@<SCITEGIC>MOL_PROPERTY
U
SciTegic.value.DoubleValue
75.785

@<SCITEGIC>MOL_PROPERTY
W
SciTegic.value.DoubleValue
-49.988

@<SCITEGIC>MOL_PROPERTY
W(PB)
SciTegic.value.DoubleValue
-52.187

@<SCITEGIC>MOL_PROPERTY
W(SA)
SciTegic.value.DoubleValue
2.200

@<SCITEGIC>MOL_PROPERTY
Valence
SciTegic.value.DoubleValue
5.519

@<SCITEGIC>MOL_PROPERTY
Coulomb
SciTegic.value.DoubleValue
69.821

@<SCITEGIC>MOL_PROPERTY
VdW
SciTegic.value.DoubleValue
0.444

@<SCITEGIC>MOL_PROPERTY
VdW6
SciTegic.value.DoubleValue
-9.101

@<SCITEGIC>MOL_PROPERTY
VdW12
SciTegic.value.DoubleValue
9.545

@<SCITEGIC>MOL_PROPERTY
Bond
SciTegic.value.DoubleValue
0.326

@<SCITEGIC>MOL_PROPERTY
Angle
SciTegic.value.DoubleValue
1.864

@<SCITEGIC>MOL_PROPERTY
Pdih
SciTegic.value.DoubleValue
3.329

@<SCITEGIC>MOL_PROPERTY
Idih
SciTegic.value.DoubleValue
0.000

@<SCITEGIC>MOL_PROPERTY
Tether
SciTegic.value.DoubleValue
0.000

@<TRIPOS>MOLECULE
guest-s12_vm2.mol2 : vm2 ligand conformer 171
          26          25           1
SMALL
USER_CHARGES
 
@<TRIPOS>ATOM
       1    N1      20.529953   19.146110   25.355366 N.4        1 MOL1        -0.4857
       2    H1      21.344723   18.889101   24.779201 H          1 MOL1         0.3650
       3    H2      20.439184   18.394017   26.055961 H          1 MOL1         0.3650
       4    C1      19.281784   19.211402   24.496562 C.3        1 MOL1         0.0209
       5    H3      19.398026   20.041956   23.798982 H          1 MOL1         0.0967
       6    H4      18.442347   19.439718   25.158195 H          1 MOL1         0.0967
       7    C2      18.985372   17.906142   23.728951 C.3        1 MOL1        -0.1378
       8    H5      18.936948   17.084761   24.456182 H          1 MOL1         0.0993
       9    H6      17.985379   17.967793   23.279774 H          1 MOL1         0.0993
      10    C3      20.027113   17.551818   22.633673 C.3        1 MOL1        -0.1338
      11    H7      19.997679   16.463441   22.485548 H          1 MOL1         0.0993
      12    H8      21.046530   17.767187   22.976995 H          1 MOL1         0.0993
      13    C4      19.768307   18.208726   21.250457 C.3        1 MOL1        -0.1338
      14    H9      20.494367   17.803534   20.532168 H          1 MOL1         0.0993
      15    H10     18.782260   17.890120   20.885216 H          1 MOL1         0.0993
      16    C5      19.839337   19.755286   21.200854 C.3        1 MOL1        -0.1313
      17    H11     19.045347   20.193477   21.818481 H          1 MOL1         0.0993
      18    H12     19.623612   20.078453   20.172844 H          1 MOL1         0.0993
      19    C6      21.216496   20.322944   21.614122 C.3        1 MOL1        -0.2328
      20    H13     22.017789   19.900035   20.994455 H          1 MOL1         0.1004
      21    H14     21.447252   20.107877   22.663465 H          1 MOL1         0.1004
      22    H15     21.236097   21.413172   21.488263 H          1 MOL1         0.1004
      23    C7      20.759637   20.487572   26.037014 C.3        1 MOL1        -0.0781
      24    H16     21.660240   20.427384   26.652142 H          1 MOL1         0.0978
      25    H17     20.883643   21.260792   25.275644 H          1 MOL1         0.0978
      26    H18     19.898341   20.722448   26.666227 H          1 MOL1         0.0978
@<TRIPOS>BOND
    1     1     2    1
    2     1     3    1
    3     1     4    1
    4     4     5    1
    5     4     6    1
    6     4     7    1
    7     7     8    1
    8     7     9    1
    9     7    10    1
   10    10    11    1
   11    10    12    1
   12    10    13    1
   13    13    14    1
   14    13    15    1
   15    13    16    1
   16    16    17    1
   17    16    18    1
   18    16    19    1
   19    19    20    1
   20    19    21    1
   21    19    22    1
   22     1    23    1
   23    23    24    1
   24    23    25    1
   25    23    26    1
@<TRIPOS>SUBSTRUCTURE
       1 MOL1            1 RESIDUE      1      MOL     
@<SCITEGIC>MOL_PROPERTY
VM2 Rank
SciTegic.value.IntegerValue
171

@<SCITEGIC>MOL_PROPERTY
Conf_Id
SciTegic.value.IntegerValue
810

@<SCITEGIC>MOL_PROPERTY
Probability
SciTegic.value.DoubleValue
0.00

@<SCITEGIC>MOL_PROPERTY
Sum Probability
SciTegic.value.DoubleValue
99.98

@<SCITEGIC>MOL_PROPERTY
Delta G
SciTegic.value.DoubleValue
4.582

@<SCITEGIC>MOL_PROPERTY
G
SciTegic.value.DoubleValue
80.048

@<SCITEGIC>MOL_PROPERTY
E
SciTegic.value.DoubleValue
46.787

@<SCITEGIC>MOL_PROPERTY
-TS
SciTegic.value.DoubleValue
33.262

@<SCITEGIC>MOL_PROPERTY
U+W
SciTegic.value.DoubleValue
25.325

@<SCITEGIC>MOL_PROPERTY
U
SciTegic.value.DoubleValue
75.173

@<SCITEGIC>MOL_PROPERTY
W
SciTegic.value.DoubleValue
-49.848

@<SCITEGIC>MOL_PROPERTY
W(PB)
SciTegic.value.DoubleValue
-52.020

@<SCITEGIC>MOL_PROPERTY
W(SA)
SciTegic.value.DoubleValue
2.172

@<SCITEGIC>MOL_PROPERTY
Valence
SciTegic.value.DoubleValue
4.878

@<SCITEGIC>MOL_PROPERTY
Coulomb
SciTegic.value.DoubleValue
70.674

@<SCITEGIC>MOL_PROPERTY
VdW
SciTegic.value.DoubleValue
-0.379

@<SCITEGIC>MOL_PROPERTY
VdW6
SciTegic.value.DoubleValue
-9.130

@<SCITEGIC>MOL_PROPERTY
VdW12
SciTegic.value.DoubleValue
8.751

@<SCITEGIC>MOL_PROPERTY
Bond
SciTegic.value.DoubleValue
0.264

@<SCITEGIC>MOL_PROPERTY
Angle
SciTegic.value.DoubleValue
1.818

@<SCITEGIC>MOL_PROPERTY
Pdih
SciTegic.value.DoubleValue
2.796

@<SCITEGIC>MOL_PROPERTY
Idih
SciTegic.value.DoubleValue
0.000

@<SCITEGIC>MOL_PROPERTY
Tether
SciTegic.value.DoubleValue
0.000

@<TRIPOS>MOLECULE
guest-s12_vm2.mol2 : vm2 ligand conformer 172
          26          25           1
SMALL
USER_CHARGES
 
@<TRIPOS>ATOM
       1    N1      19.543817   18.356260   25.378979 N.4        1 MOL1        -0.4857
       2    H1      19.381013   17.373561   25.649907 H          1 MOL1         0.3650
       3    H2      18.659971   18.668685   24.950276 H          1 MOL1         0.3650
       4    C1      20.668338   18.425015   24.358143 C.3        1 MOL1         0.0209
       5    H3      20.446178   17.691540   23.579392 H          1 MOL1         0.0967
       6    H4      21.589954   18.115996   24.857675 H          1 MOL1         0.0967
       7    C2      20.872847   19.809266   23.702078 C.3        1 MOL1        -0.1378
       8    H5      21.170529   20.534237   24.470449 H          1 MOL1         0.0993
       9    H6      21.719540   19.758516   23.007173 H          1 MOL1         0.0993
      10    C3      19.622224   20.343538   22.959475 C.3        1 MOL1        -0.1338
      11    H7      19.869442   21.311644   22.502608 H          1 MOL1         0.0993
      12    H8      18.838378   20.560788   23.697522 H          1 MOL1         0.0993
      13    C4      19.030565   19.407343   21.870773 C.3        1 MOL1        -0.1338
      14    H9      18.708322   18.453102   22.308016 H          1 MOL1         0.0993
      15    H10     18.110522   19.881825   21.502143 H          1 MOL1         0.0993
      16    C5      19.952667   19.157046   20.649005 C.3        1 MOL1        -0.1313
      17    H11     20.567524   20.044877   20.445995 H          1 MOL1         0.0993
      18    H12     19.318868   19.020844   19.761452 H          1 MOL1         0.0993
      19    C6      20.848446   17.903592   20.784370 C.3        1 MOL1        -0.2328
      20    H13     21.580633   18.003064   21.592066 H          1 MOL1         0.1004
      21    H14     21.408073   17.732879   19.855622 H          1 MOL1         0.1004
      22    H15     20.245378   17.007003   20.977553 H          1 MOL1         0.1004
      23    C7      19.869096   19.187941   26.614177 C.3        1 MOL1        -0.0781
      24    H16     19.979056   20.235170   26.325516 H          1 MOL1         0.0978
      25    H17     19.055236   19.089320   27.335916 H          1 MOL1         0.0978
      26    H18     20.799711   18.825137   27.055847 H          1 MOL1         0.0978
@<TRIPOS>BOND
    1     1     2    1
    2     1     3    1
    3     1     4    1
    4     4     5    1
    5     4     6    1
    6     4     7    1
    7     7     8    1
    8     7     9    1
    9     7    10    1
   10    10    11    1
   11    10    12    1
   12    10    13    1
   13    13    14    1
   14    13    15    1
   15    13    16    1
   16    16    17    1
   17    16    18    1
   18    16    19    1
   19    19    20    1
   20    19    21    1
   21    19    22    1
   22     1    23    1
   23    23    24    1
   24    23    25    1
   25    23    26    1
@<TRIPOS>SUBSTRUCTURE
       1 MOL1            1 RESIDUE      1      MOL     
@<SCITEGIC>MOL_PROPERTY
VM2 Rank
SciTegic.value.IntegerValue
172

@<SCITEGIC>MOL_PROPERTY
Conf_Id
SciTegic.value.IntegerValue
281

@<SCITEGIC>MOL_PROPERTY
Probability
SciTegic.value.DoubleValue
0.00

@<SCITEGIC>MOL_PROPERTY
Sum Probability
SciTegic.value.DoubleValue
99.99

@<SCITEGIC>MOL_PROPERTY
Delta G
SciTegic.value.DoubleValue
4.653

@<SCITEGIC>MOL_PROPERTY
G
SciTegic.value.DoubleValue
80.119

@<SCITEGIC>MOL_PROPERTY
E
SciTegic.value.DoubleValue
46.866

@<SCITEGIC>MOL_PROPERTY
-TS
SciTegic.value.DoubleValue
33.253

@<SCITEGIC>MOL_PROPERTY
U+W
SciTegic.value.DoubleValue
25.404

@<SCITEGIC>MOL_PROPERTY
U
SciTegic.value.DoubleValue
75.588

@<SCITEGIC>MOL_PROPERTY
W
SciTegic.value.DoubleValue
-50.184

@<SCITEGIC>MOL_PROPERTY
W(PB)
SciTegic.value.DoubleValue
-52.344

@<SCITEGIC>MOL_PROPERTY
W(SA)
SciTegic.value.DoubleValue
2.160

@<SCITEGIC>MOL_PROPERTY
Valence
SciTegic.value.DoubleValue
5.385

@<SCITEGIC>MOL_PROPERTY
Coulomb
SciTegic.value.DoubleValue
70.118

@<SCITEGIC>MOL_PROPERTY
VdW
SciTegic.value.DoubleValue
0.085

@<SCITEGIC>MOL_PROPERTY
VdW6
SciTegic.value.DoubleValue
-9.606

@<SCITEGIC>MOL_PROPERTY
VdW12
SciTegic.value.DoubleValue
9.691

@<SCITEGIC>MOL_PROPERTY
Bond
SciTegic.value.DoubleValue
0.301

@<SCITEGIC>MOL_PROPERTY
Angle
SciTegic.value.DoubleValue
1.864

@<SCITEGIC>MOL_PROPERTY
Pdih
SciTegic.value.DoubleValue
3.219

@<SCITEGIC>MOL_PROPERTY
Idih
SciTegic.value.DoubleValue
0.000

@<SCITEGIC>MOL_PROPERTY
Tether
SciTegic.value.DoubleValue
0.000

@<TRIPOS>MOLECULE
guest-s12_vm2.mol2 : vm2 ligand conformer 173
          26          25           1
SMALL
USER_CHARGES
 
@<TRIPOS>ATOM
       1    N1      20.650645   18.406026   24.953434 N.4        1 MOL1        -0.4857
       2    H1      20.865423   18.140088   23.981507 H          1 MOL1         0.3650
       3    H2      20.816503   17.556244   25.515898 H          1 MOL1         0.3650
       4    C1      19.192097   18.817360   25.069614 C.3        1 MOL1         0.0209
       5    H3      19.054429   19.223552   26.074853 H          1 MOL1         0.0967
       6    H4      18.580583   17.915321   24.986942 H          1 MOL1         0.0967
       7    C2      18.707838   19.851768   24.027819 C.3        1 MOL1        -0.1378
       8    H5      17.805182   20.328787   24.431796 H          1 MOL1         0.0993
       9    H6      19.439639   20.660967   23.916563 H          1 MOL1         0.0993
      10    C3      18.339571   19.244550   22.647215 C.3        1 MOL1        -0.1338
      11    H7      17.930850   20.042698   22.012218 H          1 MOL1         0.0993
      12    H8      17.519679   18.526235   22.785850 H          1 MOL1         0.0993
      13    C4      19.488372   18.540239   21.881000 C.3        1 MOL1        -0.1338
      14    H9      19.831304   17.660378   22.438884 H          1 MOL1         0.0993
      15    H10     19.081015   18.148227   20.938663 H          1 MOL1         0.0993
      16    C5      20.679464   19.472002   21.553142 C.3        1 MOL1        -0.1313
      17    H11     21.117508   19.879441   22.472663 H          1 MOL1         0.0993
      18    H12     20.323299   20.331738   20.968452 H          1 MOL1         0.0993
      19    C6      21.777659   18.733628   20.758862 C.3        1 MOL1        -0.2328
      20    H13     21.386518   18.349729   19.807608 H          1 MOL1         0.1004
      21    H14     22.178647   17.886286   21.329964 H          1 MOL1         0.1004
      22    H15     22.611604   19.409974   20.530466 H          1 MOL1         0.1004
      23    C7      21.572354   19.524429   25.425914 C.3        1 MOL1        -0.0781
      24    H16     21.422986   20.406733   24.800732 H          1 MOL1         0.0978
      25    H17     21.339859   19.764450   26.465691 H          1 MOL1         0.0978
      26    H18     22.609217   19.189850   25.348294 H          1 MOL1         0.0978
@<TRIPOS>BOND
    1     1     2    1
    2     1     3    1
    3     1     4    1
    4     4     5    1
    5     4     6    1
    6     4     7    1
    7     7     8    1
    8     7     9    1
    9     7    10    1
   10    10    11    1
   11    10    12    1
   12    10    13    1
   13    13    14    1
   14    13    15    1
   15    13    16    1
   16    16    17    1
   17    16    18    1
   18    16    19    1
   19    19    20    1
   20    19    21    1
   21    19    22    1
   22     1    23    1
   23    23    24    1
   24    23    25    1
   25    23    26    1
@<TRIPOS>SUBSTRUCTURE
       1 MOL1            1 RESIDUE      1      MOL     
@<SCITEGIC>MOL_PROPERTY
VM2 Rank
SciTegic.value.IntegerValue
173

@<SCITEGIC>MOL_PROPERTY
Conf_Id
SciTegic.value.IntegerValue
1094

@<SCITEGIC>MOL_PROPERTY
Probability
SciTegic.value.DoubleValue
0.00

@<SCITEGIC>MOL_PROPERTY
Sum Probability
SciTegic.value.DoubleValue
99.99

@<SCITEGIC>MOL_PROPERTY
Delta G
SciTegic.value.DoubleValue
4.879

@<SCITEGIC>MOL_PROPERTY
G
SciTegic.value.DoubleValue
80.345

@<SCITEGIC>MOL_PROPERTY
E
SciTegic.value.DoubleValue
47.032

@<SCITEGIC>MOL_PROPERTY
-TS
SciTegic.value.DoubleValue
33.313

@<SCITEGIC>MOL_PROPERTY
U+W
SciTegic.value.DoubleValue
25.571

@<SCITEGIC>MOL_PROPERTY
U
SciTegic.value.DoubleValue
74.993

@<SCITEGIC>MOL_PROPERTY
W
SciTegic.value.DoubleValue
-49.423

@<SCITEGIC>MOL_PROPERTY
W(PB)
SciTegic.value.DoubleValue
-51.584

@<SCITEGIC>MOL_PROPERTY
W(SA)
SciTegic.value.DoubleValue
2.161

@<SCITEGIC>MOL_PROPERTY
Valence
SciTegic.value.DoubleValue
4.235

@<SCITEGIC>MOL_PROPERTY
Coulomb
SciTegic.value.DoubleValue
71.017

@<SCITEGIC>MOL_PROPERTY
VdW
SciTegic.value.DoubleValue
-0.259

@<SCITEGIC>MOL_PROPERTY
VdW6
SciTegic.value.DoubleValue
-9.385

@<SCITEGIC>MOL_PROPERTY
VdW12
SciTegic.value.DoubleValue
9.126

@<SCITEGIC>MOL_PROPERTY
Bond
SciTegic.value.DoubleValue
0.262

@<SCITEGIC>MOL_PROPERTY
Angle
SciTegic.value.DoubleValue
1.598

@<SCITEGIC>MOL_PROPERTY
Pdih
SciTegic.value.DoubleValue
2.376

@<SCITEGIC>MOL_PROPERTY
Idih
SciTegic.value.DoubleValue
0.000

@<SCITEGIC>MOL_PROPERTY
Tether
SciTegic.value.DoubleValue
0.000

@<TRIPOS>MOLECULE
guest-s12_vm2.mol2 : vm2 ligand conformer 174
          26          25           1
SMALL
USER_CHARGES
 
@<TRIPOS>ATOM
       1    N1      20.677865   18.667930   25.506626 N.4        1 MOL1        -0.4857
       2    H1      20.959652   17.884796   24.898722 H          1 MOL1         0.3650
       3    H2      20.975408   18.391119   26.455543 H          1 MOL1         0.3650
       4    C1      19.168280   18.837314   25.482673 C.3        1 MOL1         0.0209
       5    H3      18.939554   19.875032   25.737807 H          1 MOL1         0.0967
       6    H4      18.771181   18.206714   26.282253 H          1 MOL1         0.0967
       7    C2      18.454595   18.441175   24.168243 C.3        1 MOL1        -0.1378
       8    H5      18.617426   17.375851   23.958116 H          1 MOL1         0.0993
       9    H6      17.375982   18.546601   24.345118 H          1 MOL1         0.0993
      10    C3      18.824956   19.299661   22.932036 C.3        1 MOL1        -0.1338
      11    H7      19.043151   20.330272   23.243415 H          1 MOL1         0.0993
      12    H8      17.945363   19.362506   22.276379 H          1 MOL1         0.0993
      13    C4      19.997986   18.715543   22.106750 C.3        1 MOL1        -0.1338
      14    H9      20.881509   18.572688   22.739225 H          1 MOL1         0.0993
      15    H10     19.719211   17.720640   21.732800 H          1 MOL1         0.0993
      16    C5      20.368448   19.624695   20.914040 C.3        1 MOL1        -0.1313
      17    H11     20.646502   20.622824   21.280561 H          1 MOL1         0.0993
      18    H12     19.492982   19.758875   20.263254 H          1 MOL1         0.0993
      19    C6      21.534924   19.039795   20.089455 C.3        1 MOL1        -0.2328
      20    H13     22.436627   18.927091   20.705424 H          1 MOL1         0.1004
      21    H14     21.782890   19.698726   19.247240 H          1 MOL1         0.1004
      22    H15     21.274694   18.054672   19.680803 H          1 MOL1         0.1004
      23    C7      21.380945   19.963888   25.117176 C.3        1 MOL1        -0.0781
      24    H16     22.461555   19.809250   25.154440 H          1 MOL1         0.0978
      25    H17     21.084870   20.251006   24.106959 H          1 MOL1         0.0978
      26    H18     21.097502   20.749401   25.821031 H          1 MOL1         0.0978
@<TRIPOS>BOND
    1     1     2    1
    2     1     3    1
    3     1     4    1
    4     4     5    1
    5     4     6    1
    6     4     7    1
    7     7     8    1
    8     7     9    1
    9     7    10    1
   10    10    11    1
   11    10    12    1
   12    10    13    1
   13    13    14    1
   14    13    15    1
   15    13    16    1
   16    16    17    1
   17    16    18    1
   18    16    19    1
   19    19    20    1
   20    19    21    1
   21    19    22    1
   22     1    23    1
   23    23    24    1
   24    23    25    1
   25    23    26    1
@<TRIPOS>SUBSTRUCTURE
       1 MOL1            1 RESIDUE      1      MOL     
@<SCITEGIC>MOL_PROPERTY
VM2 Rank
SciTegic.value.IntegerValue
174

@<SCITEGIC>MOL_PROPERTY
Conf_Id
SciTegic.value.IntegerValue
1074

@<SCITEGIC>MOL_PROPERTY
Probability
SciTegic.value.DoubleValue
0.00

@<SCITEGIC>MOL_PROPERTY
Sum Probability
SciTegic.value.DoubleValue
99.99

@<SCITEGIC>MOL_PROPERTY
Delta G
SciTegic.value.DoubleValue
4.892

@<SCITEGIC>MOL_PROPERTY
G
SciTegic.value.DoubleValue
80.358

@<SCITEGIC>MOL_PROPERTY
E
SciTegic.value.DoubleValue
47.447

@<SCITEGIC>MOL_PROPERTY
-TS
SciTegic.value.DoubleValue
32.911

@<SCITEGIC>MOL_PROPERTY
U+W
SciTegic.value.DoubleValue
25.985

@<SCITEGIC>MOL_PROPERTY
U
SciTegic.value.DoubleValue
76.026

@<SCITEGIC>MOL_PROPERTY
W
SciTegic.value.DoubleValue
-50.041

@<SCITEGIC>MOL_PROPERTY
W(PB)
SciTegic.value.DoubleValue
-52.258

@<SCITEGIC>MOL_PROPERTY
W(SA)
SciTegic.value.DoubleValue
2.217

@<SCITEGIC>MOL_PROPERTY
Valence
SciTegic.value.DoubleValue
5.956

@<SCITEGIC>MOL_PROPERTY
Coulomb
SciTegic.value.DoubleValue
70.111

@<SCITEGIC>MOL_PROPERTY
VdW
SciTegic.value.DoubleValue
-0.042

@<SCITEGIC>MOL_PROPERTY
VdW6
SciTegic.value.DoubleValue
-8.366

@<SCITEGIC>MOL_PROPERTY
VdW12
SciTegic.value.DoubleValue
8.324

@<SCITEGIC>MOL_PROPERTY
Bond
SciTegic.value.DoubleValue
0.228

@<SCITEGIC>MOL_PROPERTY
Angle
SciTegic.value.DoubleValue
1.342

@<SCITEGIC>MOL_PROPERTY
Pdih
SciTegic.value.DoubleValue
4.386

@<SCITEGIC>MOL_PROPERTY
Idih
SciTegic.value.DoubleValue
0.000

@<SCITEGIC>MOL_PROPERTY
Tether
SciTegic.value.DoubleValue
0.000

@<TRIPOS>MOLECULE
guest-s12_vm2.mol2 : vm2 ligand conformer 175
          26          25           1
SMALL
USER_CHARGES
 
@<TRIPOS>ATOM
       1    N1      20.710226   19.332695   25.066086 N.4        1 MOL1        -0.4857
       2    H1      20.735461   20.041179   24.318762 H          1 MOL1         0.3650
       3    H2      21.547106   18.746469   24.923648 H          1 MOL1         0.3650
       4    C1      19.457127   18.489446   24.937030 C.3        1 MOL1         0.0209
       5    H3      18.592647   19.122221   25.152774 H          1 MOL1         0.0967
       6    H4      19.512897   17.717297   25.708526 H          1 MOL1         0.0967
       7    C2      19.277209   17.815548   23.560306 C.3        1 MOL1        -0.1378
       8    H5      20.221994   17.366643   23.228574 H          1 MOL1         0.0993
       9    H6      18.582142   16.975884   23.692650 H          1 MOL1         0.0993
      10    C3      18.688133   18.745500   22.466011 C.3        1 MOL1        -0.1338
      11    H7      17.718039   19.127500   22.812864 H          1 MOL1         0.0993
      12    H8      18.460902   18.141222   21.577652 H          1 MOL1         0.0993
      13    C4      19.570958   19.950290   22.043539 C.3        1 MOL1        -0.1338
      14    H9      19.045374   20.501458   21.251430 H          1 MOL1         0.0993
      15    H10     19.652869   20.658585   22.877181 H          1 MOL1         0.0993
      16    C5      20.987325   19.583647   21.529887 C.3        1 MOL1        -0.1313
      17    H11     21.572616   19.099181   22.321535 H          1 MOL1         0.0993
      18    H12     21.522104   20.511667   21.283452 H          1 MOL1         0.0993
      19    C6      20.966506   18.676715   20.278775 C.3        1 MOL1        -0.2328
      20    H13     21.985105   18.517309   19.902070 H          1 MOL1         0.1004
      21    H14     20.377506   19.130909   19.471479 H          1 MOL1         0.1004
      22    H15     20.539558   17.691362   20.503329 H          1 MOL1         0.1004
      23    C7      20.750516   19.996159   26.435366 C.3        1 MOL1        -0.0781
      24    H16     20.752437   19.224314   27.208128 H          1 MOL1         0.0978
      25    H17     21.657376   20.599808   26.514771 H          1 MOL1         0.0978
      26    H18     19.871374   20.633753   26.551536 H          1 MOL1         0.0978
@<TRIPOS>BOND
    1     1     2    1
    2     1     3    1
    3     1     4    1
    4     4     5    1
    5     4     6    1
    6     4     7    1
    7     7     8    1
    8     7     9    1
    9     7    10    1
   10    10    11    1
   11    10    12    1
   12    10    13    1
   13    13    14    1
   14    13    15    1
   15    13    16    1
   16    16    17    1
   17    16    18    1
   18    16    19    1
   19    19    20    1
   20    19    21    1
   21    19    22    1
   22     1    23    1
   23    23    24    1
   24    23    25    1
   25    23    26    1
@<TRIPOS>SUBSTRUCTURE
       1 MOL1            1 RESIDUE      1      MOL     
@<SCITEGIC>MOL_PROPERTY
VM2 Rank
SciTegic.value.IntegerValue
175

@<SCITEGIC>MOL_PROPERTY
Conf_Id
SciTegic.value.IntegerValue
284

@<SCITEGIC>MOL_PROPERTY
Probability
SciTegic.value.DoubleValue
0.00

@<SCITEGIC>MOL_PROPERTY
Sum Probability
SciTegic.value.DoubleValue
99.99

@<SCITEGIC>MOL_PROPERTY
Delta G
SciTegic.value.DoubleValue
4.986

@<SCITEGIC>MOL_PROPERTY
G
SciTegic.value.DoubleValue
80.452

@<SCITEGIC>MOL_PROPERTY
E
SciTegic.value.DoubleValue
47.329

@<SCITEGIC>MOL_PROPERTY
-TS
SciTegic.value.DoubleValue
33.124

@<SCITEGIC>MOL_PROPERTY
U+W
SciTegic.value.DoubleValue
25.867

@<SCITEGIC>MOL_PROPERTY
U
SciTegic.value.DoubleValue
75.257

@<SCITEGIC>MOL_PROPERTY
W
SciTegic.value.DoubleValue
-49.390

@<SCITEGIC>MOL_PROPERTY
W(PB)
SciTegic.value.DoubleValue
-51.577

@<SCITEGIC>MOL_PROPERTY
W(SA)
SciTegic.value.DoubleValue
2.188

@<SCITEGIC>MOL_PROPERTY
Valence
SciTegic.value.DoubleValue
4.258

@<SCITEGIC>MOL_PROPERTY
Coulomb
SciTegic.value.DoubleValue
71.252

@<SCITEGIC>MOL_PROPERTY
VdW
SciTegic.value.DoubleValue
-0.253

@<SCITEGIC>MOL_PROPERTY
VdW6
SciTegic.value.DoubleValue
-9.004

@<SCITEGIC>MOL_PROPERTY
VdW12
SciTegic.value.DoubleValue
8.750

@<SCITEGIC>MOL_PROPERTY
Bond
SciTegic.value.DoubleValue
0.262

@<SCITEGIC>MOL_PROPERTY
Angle
SciTegic.value.DoubleValue
1.778

@<SCITEGIC>MOL_PROPERTY
Pdih
SciTegic.value.DoubleValue
2.217

@<SCITEGIC>MOL_PROPERTY
Idih
SciTegic.value.DoubleValue
0.000

@<SCITEGIC>MOL_PROPERTY
Tether
SciTegic.value.DoubleValue
0.000

@<TRIPOS>MOLECULE
guest-s12_vm2.mol2 : vm2 ligand conformer 176
          26          25           1
SMALL
USER_CHARGES
 
@<TRIPOS>ATOM
       1    N1      19.738824   18.334686   24.855913 N.4        1 MOL1        -0.4857
       2    H1      20.404089   17.546419   24.831189 H          1 MOL1         0.3650
       3    H2      19.260445   18.323820   23.943224 H          1 MOL1         0.3650
       4    C1      20.487803   19.641494   25.031657 C.3        1 MOL1         0.0209
       5    H3      21.042129   19.566514   25.970618 H          1 MOL1         0.0967
       6    H4      19.756852   20.447622   25.132496 H          1 MOL1         0.0967
       7    C2      21.470412   19.970858   23.888006 C.3        1 MOL1        -0.1378
       8    H5      22.212907   20.677875   24.281190 H          1 MOL1         0.0993
       9    H6      22.038150   19.075354   23.605191 H          1 MOL1         0.0993
      10    C3      20.808873   20.625327   22.645222 C.3        1 MOL1        -0.1338
      11    H7      21.597313   20.886070   21.925683 H          1 MOL1         0.0993
      12    H8      20.356782   21.579646   22.949142 H          1 MOL1         0.0993
      13    C4      19.732312   19.779629   21.918049 C.3        1 MOL1        -0.1338
      14    H9      18.874096   19.609930   22.579971 H          1 MOL1         0.0993
      15    H10     19.341209   20.372011   21.079139 H          1 MOL1         0.0993
      16    C5      20.266081   18.436219   21.365629 C.3        1 MOL1        -0.1313
      17    H11     20.665712   17.813762   22.175923 H          1 MOL1         0.0993
      18    H12     21.101650   18.628229   20.677940 H          1 MOL1         0.0993
      19    C6      19.165111   17.648883   20.623870 C.3        1 MOL1        -0.2328
      20    H13     18.772965   18.223515   19.774575 H          1 MOL1         0.1004
      21    H14     18.326918   17.412821   21.292209 H          1 MOL1         0.1004
      22    H15     19.561481   16.702264   20.234119 H          1 MOL1         0.1004
      23    C7      18.738584   18.152903   25.988654 C.3        1 MOL1        -0.0781
      24    H16     18.207168   17.208768   25.849709 H          1 MOL1         0.0978
      25    H17     19.273579   18.138277   26.940747 H          1 MOL1         0.0978
      26    H18     18.027597   18.981914   25.976571 H          1 MOL1         0.0978
@<TRIPOS>BOND
    1     1     2    1
    2     1     3    1
    3     1     4    1
    4     4     5    1
    5     4     6    1
    6     4     7    1
    7     7     8    1
    8     7     9    1
    9     7    10    1
   10    10    11    1
   11    10    12    1
   12    10    13    1
   13    13    14    1
   14    13    15    1
   15    13    16    1
   16    16    17    1
   17    16    18    1
   18    16    19    1
   19    19    20    1
   20    19    21    1
   21    19    22    1
   22     1    23    1
   23    23    24    1
   24    23    25    1
   25    23    26    1
@<TRIPOS>SUBSTRUCTURE
       1 MOL1            1 RESIDUE      1      MOL     
@<SCITEGIC>MOL_PROPERTY
VM2 Rank
SciTegic.value.IntegerValue
176

@<SCITEGIC>MOL_PROPERTY
Conf_Id
SciTegic.value.IntegerValue
258

@<SCITEGIC>MOL_PROPERTY
Probability
SciTegic.value.DoubleValue
0.00

@<SCITEGIC>MOL_PROPERTY
Sum Probability
SciTegic.value.DoubleValue
99.99

@<SCITEGIC>MOL_PROPERTY
Delta G
SciTegic.value.DoubleValue
5.238

@<SCITEGIC>MOL_PROPERTY
G
SciTegic.value.DoubleValue
80.704

@<SCITEGIC>MOL_PROPERTY
E
SciTegic.value.DoubleValue
47.756

@<SCITEGIC>MOL_PROPERTY
-TS
SciTegic.value.DoubleValue
32.948

@<SCITEGIC>MOL_PROPERTY
U+W
SciTegic.value.DoubleValue
26.294

@<SCITEGIC>MOL_PROPERTY
U
SciTegic.value.DoubleValue
74.740

@<SCITEGIC>MOL_PROPERTY
W
SciTegic.value.DoubleValue
-48.446

@<SCITEGIC>MOL_PROPERTY
W(PB)
SciTegic.value.DoubleValue
-50.667

@<SCITEGIC>MOL_PROPERTY
W(SA)
SciTegic.value.DoubleValue
2.221

@<SCITEGIC>MOL_PROPERTY
Valence
SciTegic.value.DoubleValue
3.847

@<SCITEGIC>MOL_PROPERTY
Coulomb
SciTegic.value.DoubleValue
71.181

@<SCITEGIC>MOL_PROPERTY
VdW
SciTegic.value.DoubleValue
-0.288

@<SCITEGIC>MOL_PROPERTY
VdW6
SciTegic.value.DoubleValue
-8.401

@<SCITEGIC>MOL_PROPERTY
VdW12
SciTegic.value.DoubleValue
8.113

@<SCITEGIC>MOL_PROPERTY
Bond
SciTegic.value.DoubleValue
0.222

@<SCITEGIC>MOL_PROPERTY
Angle
SciTegic.value.DoubleValue
1.471

@<SCITEGIC>MOL_PROPERTY
Pdih
SciTegic.value.DoubleValue
2.154

@<SCITEGIC>MOL_PROPERTY
Idih
SciTegic.value.DoubleValue
0.000

@<SCITEGIC>MOL_PROPERTY
Tether
SciTegic.value.DoubleValue
0.000

@<TRIPOS>MOLECULE
guest-s12_vm2.mol2 : vm2 ligand conformer 177
          26          25           1
SMALL
USER_CHARGES
 
@<TRIPOS>ATOM
       1    N1      20.392945   18.400313   24.879123 N.4        1 MOL1        -0.4857
       2    H1      20.926798   18.490990   24.002340 H          1 MOL1         0.3650
       3    H2      19.900741   17.495900   24.813369 H          1 MOL1         0.3650
       4    C1      19.389093   19.531238   24.992651 C.3        1 MOL1         0.0209
       5    H3      19.936629   20.465660   25.138799 H          1 MOL1         0.0967
       6    H4      18.796202   19.341176   25.890930 H          1 MOL1         0.0967
       7    C2      18.443357   19.667056   23.780599 C.3        1 MOL1        -0.1378
       8    H5      18.085924   18.678695   23.464969 H          1 MOL1         0.0993
       9    H6      17.549587   20.209846   24.115739 H          1 MOL1         0.0993
      10    C3      19.047357   20.448541   22.582709 C.3        1 MOL1        -0.1338
      11    H7      19.278578   21.471440   22.910876 H          1 MOL1         0.0993
      12    H8      18.275313   20.552666   21.807810 H          1 MOL1         0.0993
      13    C4      20.318671   19.838495   21.938836 C.3        1 MOL1        -0.1338
      14    H9      20.642301   20.502620   21.125294 H          1 MOL1         0.0993
      15    H10     21.144889   19.837843   22.660526 H          1 MOL1         0.0993
      16    C5      20.102270   18.419801   21.359780 C.3        1 MOL1        -0.1313
      17    H11     19.295647   18.447019   20.613737 H          1 MOL1         0.0993
      18    H12     19.778175   17.724729   22.144365 H          1 MOL1         0.0993
      19    C6      21.386932   17.871843   20.702801 C.3        1 MOL1        -0.2328
      20    H13     21.715968   18.518849   19.879149 H          1 MOL1         0.1004
      21    H14     21.214672   16.868174   20.292825 H          1 MOL1         0.1004
      22    H15     22.206206   17.802073   21.430049 H          1 MOL1         0.1004
      23    C7      21.327375   18.412713   26.080501 C.3        1 MOL1        -0.0781
      24    H16     20.740455   18.285621   26.992799 H          1 MOL1         0.0978
      25    H17     22.043947   17.593764   25.985907 H          1 MOL1         0.0978
      26    H18     21.858822   19.366366   26.112416 H          1 MOL1         0.0978
@<TRIPOS>BOND
    1     1     2    1
    2     1     3    1
    3     1     4    1
    4     4     5    1
    5     4     6    1
    6     4     7    1
    7     7     8    1
    8     7     9    1
    9     7    10    1
   10    10    11    1
   11    10    12    1
   12    10    13    1
   13    13    14    1
   14    13    15    1
   15    13    16    1
   16    16    17    1
   17    16    18    1
   18    16    19    1
   19    19    20    1
   20    19    21    1
   21    19    22    1
   22     1    23    1
   23    23    24    1
   24    23    25    1
   25    23    26    1
@<TRIPOS>SUBSTRUCTURE
       1 MOL1            1 RESIDUE      1      MOL     
@<SCITEGIC>MOL_PROPERTY
VM2 Rank
SciTegic.value.IntegerValue
177

@<SCITEGIC>MOL_PROPERTY
Conf_Id
SciTegic.value.IntegerValue
149

@<SCITEGIC>MOL_PROPERTY
Probability
SciTegic.value.DoubleValue
0.00

@<SCITEGIC>MOL_PROPERTY
Sum Probability
SciTegic.value.DoubleValue
99.99

@<SCITEGIC>MOL_PROPERTY
Delta G
SciTegic.value.DoubleValue
5.291

@<SCITEGIC>MOL_PROPERTY
G
SciTegic.value.DoubleValue
80.757

@<SCITEGIC>MOL_PROPERTY
E
SciTegic.value.DoubleValue
47.809

@<SCITEGIC>MOL_PROPERTY
-TS
SciTegic.value.DoubleValue
32.948

@<SCITEGIC>MOL_PROPERTY
U+W
SciTegic.value.DoubleValue
26.347

@<SCITEGIC>MOL_PROPERTY
U
SciTegic.value.DoubleValue
74.740

@<SCITEGIC>MOL_PROPERTY
W
SciTegic.value.DoubleValue
-48.393

@<SCITEGIC>MOL_PROPERTY
W(PB)
SciTegic.value.DoubleValue
-50.619

@<SCITEGIC>MOL_PROPERTY
W(SA)
SciTegic.value.DoubleValue
2.226

@<SCITEGIC>MOL_PROPERTY
Valence
SciTegic.value.DoubleValue
3.847

@<SCITEGIC>MOL_PROPERTY
Coulomb
SciTegic.value.DoubleValue
71.181

@<SCITEGIC>MOL_PROPERTY
VdW
SciTegic.value.DoubleValue
-0.288

@<SCITEGIC>MOL_PROPERTY
VdW6
SciTegic.value.DoubleValue
-8.401

@<SCITEGIC>MOL_PROPERTY
VdW12
SciTegic.value.DoubleValue
8.113

@<SCITEGIC>MOL_PROPERTY
Bond
SciTegic.value.DoubleValue
0.222

@<SCITEGIC>MOL_PROPERTY
Angle
SciTegic.value.DoubleValue
1.471

@<SCITEGIC>MOL_PROPERTY
Pdih
SciTegic.value.DoubleValue
2.154

@<SCITEGIC>MOL_PROPERTY
Idih
SciTegic.value.DoubleValue
0.000

@<SCITEGIC>MOL_PROPERTY
Tether
SciTegic.value.DoubleValue
0.000

@<TRIPOS>MOLECULE
guest-s12_vm2.mol2 : vm2 ligand conformer 178
          26          25           1
SMALL
USER_CHARGES
 
@<TRIPOS>ATOM
       1    N1      19.989044   18.759333   26.108990 N.4        1 MOL1        -0.4857
       2    H1      20.398359   18.409719   26.989801 H          1 MOL1         0.3650
       3    H2      19.093747   18.256468   26.013954 H          1 MOL1         0.3650
       4    C1      20.914984   18.413628   24.953574 C.3        1 MOL1         0.0209
       5    H3      21.462311   17.514619   25.248417 H          1 MOL1         0.0967
       6    H4      21.640949   19.222913   24.842487 H          1 MOL1         0.0967
       7    C2      20.218843   18.126761   23.604345 C.3        1 MOL1        -0.1378
       8    H5      20.983577   17.780801   22.900031 H          1 MOL1         0.0993
       9    H6      19.520766   17.288394   23.728098 H          1 MOL1         0.0993
      10    C3      19.466722   19.345375   23.012701 C.3        1 MOL1        -0.1338
      11    H7      20.106881   20.238096   23.031785 H          1 MOL1         0.0993
      12    H8      18.607400   19.566984   23.659010 H          1 MOL1         0.0993
      13    C4      18.935479   19.102098   21.575796 C.3        1 MOL1        -0.1338
      14    H9      18.719936   18.035474   21.423792 H          1 MOL1         0.0993
      15    H10     17.969241   19.615888   21.476190 H          1 MOL1         0.0993
      16    C5      19.860170   19.626282   20.447172 C.3        1 MOL1        -0.1313
      17    H11     19.987150   20.713013   20.550569 H          1 MOL1         0.0993
      18    H12     19.356812   19.469983   19.482788 H          1 MOL1         0.0993
      19    C6      21.248531   18.951432   20.396127 C.3        1 MOL1        -0.2328
      20    H13     21.804931   19.285659   19.510921 H          1 MOL1         0.1004
      21    H14     21.156342   17.859061   20.341221 H          1 MOL1         0.1004
      22    H15     21.849840   19.208301   21.276956 H          1 MOL1         0.1004
      23    C7      19.774226   20.265091   26.218296 C.3        1 MOL1        -0.0781
      24    H16     19.125733   20.471414   27.072662 H          1 MOL1         0.0978
      25    H17     20.739945   20.753903   26.364062 H          1 MOL1         0.0978
      26    H18     19.307386   20.637863   25.305794 H          1 MOL1         0.0978
@<TRIPOS>BOND
    1     1     2    1
    2     1     3    1
    3     1     4    1
    4     4     5    1
    5     4     6    1
    6     4     7    1
    7     7     8    1
    8     7     9    1
    9     7    10    1
   10    10    11    1
   11    10    12    1
   12    10    13    1
   13    13    14    1
   14    13    15    1
   15    13    16    1
   16    16    17    1
   17    16    18    1
   18    16    19    1
   19    19    20    1
   20    19    21    1
   21    19    22    1
   22     1    23    1
   23    23    24    1
   24    23    25    1
   25    23    26    1
@<TRIPOS>SUBSTRUCTURE
       1 MOL1            1 RESIDUE      1      MOL     
@<SCITEGIC>MOL_PROPERTY
VM2 Rank
SciTegic.value.IntegerValue
178

@<SCITEGIC>MOL_PROPERTY
Conf_Id
SciTegic.value.IntegerValue
510

@<SCITEGIC>MOL_PROPERTY
Probability
SciTegic.value.DoubleValue
0.00

@<SCITEGIC>MOL_PROPERTY
Sum Probability
SciTegic.value.DoubleValue
99.99

@<SCITEGIC>MOL_PROPERTY
Delta G
SciTegic.value.DoubleValue
5.472

@<SCITEGIC>MOL_PROPERTY
G
SciTegic.value.DoubleValue
80.938

@<SCITEGIC>MOL_PROPERTY
E
SciTegic.value.DoubleValue
48.019

@<SCITEGIC>MOL_PROPERTY
-TS
SciTegic.value.DoubleValue
32.919

@<SCITEGIC>MOL_PROPERTY
U+W
SciTegic.value.DoubleValue
26.557

@<SCITEGIC>MOL_PROPERTY
U
SciTegic.value.DoubleValue
76.255

@<SCITEGIC>MOL_PROPERTY
W
SciTegic.value.DoubleValue
-49.697

@<SCITEGIC>MOL_PROPERTY
W(PB)
SciTegic.value.DoubleValue
-51.921

@<SCITEGIC>MOL_PROPERTY
W(SA)
SciTegic.value.DoubleValue
2.224

@<SCITEGIC>MOL_PROPERTY
Valence
SciTegic.value.DoubleValue
6.727

@<SCITEGIC>MOL_PROPERTY
Coulomb
SciTegic.value.DoubleValue
69.126

@<SCITEGIC>MOL_PROPERTY
VdW
SciTegic.value.DoubleValue
0.401

@<SCITEGIC>MOL_PROPERTY
VdW6
SciTegic.value.DoubleValue
-8.493

@<SCITEGIC>MOL_PROPERTY
VdW12
SciTegic.value.DoubleValue
8.894

@<SCITEGIC>MOL_PROPERTY
Bond
SciTegic.value.DoubleValue
0.275

@<SCITEGIC>MOL_PROPERTY
Angle
SciTegic.value.DoubleValue
1.572

@<SCITEGIC>MOL_PROPERTY
Pdih
SciTegic.value.DoubleValue
4.881

@<SCITEGIC>MOL_PROPERTY
Idih
SciTegic.value.DoubleValue
0.000

@<SCITEGIC>MOL_PROPERTY
Tether
SciTegic.value.DoubleValue
0.000

@<TRIPOS>MOLECULE
guest-s12_vm2.mol2 : vm2 ligand conformer 179
          26          25           1
SMALL
USER_CHARGES
 
@<TRIPOS>ATOM
       1    N1      19.296846   18.562002   25.691913 N.4        1 MOL1        -0.4857
       2    H1      19.128446   17.991884   26.535852 H          1 MOL1         0.3650
       3    H2      18.594845   18.240438   25.008575 H          1 MOL1         0.3650
       4    C1      20.700659   18.291446   25.174870 C.3        1 MOL1         0.0209
       5    H3      20.970402   17.286228   25.508765 H          1 MOL1         0.0967
       6    H4      21.384483   18.995638   25.655298 H          1 MOL1         0.0967
       7    C2      20.864376   18.344470   23.639514 C.3        1 MOL1        -0.1378
       8    H5      21.890457   18.034523   23.401754 H          1 MOL1         0.0993
       9    H6      20.207176   17.595452   23.184433 H          1 MOL1         0.0993
      10    C3      20.606655   19.745571   23.028860 C.3        1 MOL1        -0.1338
      11    H7      21.227738   20.473252   23.569375 H          1 MOL1         0.0993
      12    H8      19.564425   20.050780   23.186923 H          1 MOL1         0.0993
      13    C4      20.949151   19.836209   21.518289 C.3        1 MOL1        -0.1338
      14    H9      21.330899   20.846489   21.315604 H          1 MOL1         0.0993
      15    H10     21.774733   19.154878   21.271044 H          1 MOL1         0.0993
      16    C5      19.753238   19.591933   20.562385 C.3        1 MOL1        -0.1313
      17    H11     20.096223   19.749395   19.530193 H          1 MOL1         0.0993
      18    H12     18.976384   20.348165   20.742361 H          1 MOL1         0.0993
      19    C6      19.129959   18.182786   20.666036 C.3        1 MOL1        -0.2328
      20    H13     19.895715   17.401927   20.572644 H          1 MOL1         0.1004
      21    H14     18.394790   18.029369   19.865493 H          1 MOL1         0.1004
      22    H15     18.605519   18.048351   21.619679 H          1 MOL1         0.1004
      23    C7      19.107116   20.035583   26.035132 C.3        1 MOL1        -0.0781
      24    H16     19.253768   20.643992   25.141915 H          1 MOL1         0.0978
      25    H17     18.095449   20.184824   26.418938 H          1 MOL1         0.0978
      26    H18     19.834774   20.320859   26.797980 H          1 MOL1         0.0978
@<TRIPOS>BOND
    1     1     2    1
    2     1     3    1
    3     1     4    1
    4     4     5    1
    5     4     6    1
    6     4     7    1
    7     7     8    1
    8     7     9    1
    9     7    10    1
   10    10    11    1
   11    10    12    1
   12    10    13    1
   13    13    14    1
   14    13    15    1
   15    13    16    1
   16    16    17    1
   17    16    18    1
   18    16    19    1
   19    19    20    1
   20    19    21    1
   21    19    22    1
   22     1    23    1
   23    23    24    1
   24    23    25    1
   25    23    26    1
@<TRIPOS>SUBSTRUCTURE
       1 MOL1            1 RESIDUE      1      MOL     
@<SCITEGIC>MOL_PROPERTY
VM2 Rank
SciTegic.value.IntegerValue
179

@<SCITEGIC>MOL_PROPERTY
Conf_Id
SciTegic.value.IntegerValue
1047

@<SCITEGIC>MOL_PROPERTY
Probability
SciTegic.value.DoubleValue
0.00

@<SCITEGIC>MOL_PROPERTY
Sum Probability
SciTegic.value.DoubleValue
99.99

@<SCITEGIC>MOL_PROPERTY
Delta G
SciTegic.value.DoubleValue
5.488

@<SCITEGIC>MOL_PROPERTY
G
SciTegic.value.DoubleValue
80.954

@<SCITEGIC>MOL_PROPERTY
E
SciTegic.value.DoubleValue
48.183

@<SCITEGIC>MOL_PROPERTY
-TS
SciTegic.value.DoubleValue
32.770

@<SCITEGIC>MOL_PROPERTY
U+W
SciTegic.value.DoubleValue
26.721

@<SCITEGIC>MOL_PROPERTY
U
SciTegic.value.DoubleValue
76.621

@<SCITEGIC>MOL_PROPERTY
W
SciTegic.value.DoubleValue
-49.900

@<SCITEGIC>MOL_PROPERTY
W(PB)
SciTegic.value.DoubleValue
-52.079

@<SCITEGIC>MOL_PROPERTY
W(SA)
SciTegic.value.DoubleValue
2.179

@<SCITEGIC>MOL_PROPERTY
Valence
SciTegic.value.DoubleValue
6.730

@<SCITEGIC>MOL_PROPERTY
Coulomb
SciTegic.value.DoubleValue
69.541

@<SCITEGIC>MOL_PROPERTY
VdW
SciTegic.value.DoubleValue
0.350

@<SCITEGIC>MOL_PROPERTY
VdW6
SciTegic.value.DoubleValue
-8.499

@<SCITEGIC>MOL_PROPERTY
VdW12
SciTegic.value.DoubleValue
8.849

@<SCITEGIC>MOL_PROPERTY
Bond
SciTegic.value.DoubleValue
0.279

@<SCITEGIC>MOL_PROPERTY
Angle
SciTegic.value.DoubleValue
1.639

@<SCITEGIC>MOL_PROPERTY
Pdih
SciTegic.value.DoubleValue
4.812

@<SCITEGIC>MOL_PROPERTY
Idih
SciTegic.value.DoubleValue
0.000

@<SCITEGIC>MOL_PROPERTY
Tether
SciTegic.value.DoubleValue
0.000

@<TRIPOS>MOLECULE
guest-s12_vm2.mol2 : vm2 ligand conformer 180
          26          25           1
SMALL
USER_CHARGES
 
@<TRIPOS>ATOM
       1    N1      19.977656   18.758249   26.108553 N.4        1 MOL1        -0.4857
       2    H1      20.960585   18.447600   26.080095 H          1 MOL1         0.3650
       3    H2      19.586854   18.326808   26.961037 H          1 MOL1         0.3650
       4    C1      19.224074   18.240582   24.893648 C.3        1 MOL1         0.0209
       5    H3      18.359019   18.887050   24.726110 H          1 MOL1         0.0967
       6    H4      18.850634   17.247370   25.155925 H          1 MOL1         0.0967
       7    C2      20.056652   18.110060   23.598621 C.3        1 MOL1        -0.1378
       8    H5      20.899464   17.429383   23.777036 H          1 MOL1         0.0993
       9    H6      19.428987   17.621576   22.844970 H          1 MOL1         0.0993
      10    C3      20.586278   19.459811   23.052350 C.3        1 MOL1        -0.1338
      11    H7      21.335615   19.846032   23.755620 H          1 MOL1         0.0993
      12    H8      19.779048   20.204432   23.020164 H          1 MOL1         0.0993
      13    C4      21.254988   19.339287   21.657934 C.3        1 MOL1        -0.1338
      14    H9      22.101961   20.038501   21.622545 H          1 MOL1         0.0993
      15    H10     21.691803   18.339378   21.528999 H          1 MOL1         0.0993
      16    C5      20.324717   19.673805   20.463656 C.3        1 MOL1        -0.1313
      17    H11     20.915473   19.629328   19.537986 H          1 MOL1         0.0993
      18    H12     19.973825   20.711687   20.550118 H          1 MOL1         0.0993
      19    C6      19.108420   18.732688   20.320493 C.3        1 MOL1        -0.2328
      20    H13     18.407556   18.856393   21.155300 H          1 MOL1         0.1004
      21    H14     19.423076   17.681911   20.279923 H          1 MOL1         0.1004
      22    H15     18.559200   18.953928   19.396218 H          1 MOL1         0.1004
      23    C7      19.875216   20.275518   26.221745 C.3        1 MOL1        -0.0781
      24    H16     20.319777   20.741501   25.341526 H          1 MOL1         0.0978
      25    H17     18.822787   20.557808   26.295941 H          1 MOL1         0.0978
      26    H18     20.407052   20.602687   27.117939 H          1 MOL1         0.0978
@<TRIPOS>BOND
    1     1     2    1
    2     1     3    1
    3     1     4    1
    4     4     5    1
    5     4     6    1
    6     4     7    1
    7     7     8    1
    8     7     9    1
    9     7    10    1
   10    10    11    1
   11    10    12    1
   12    10    13    1
   13    13    14    1
   14    13    15    1
   15    13    16    1
   16    16    17    1
   17    16    18    1
   18    16    19    1
   19    19    20    1
   20    19    21    1
   21    19    22    1
   22     1    23    1
   23    23    24    1
   24    23    25    1
   25    23    26    1
@<TRIPOS>SUBSTRUCTURE
       1 MOL1            1 RESIDUE      1      MOL     
@<SCITEGIC>MOL_PROPERTY
VM2 Rank
SciTegic.value.IntegerValue
180

@<SCITEGIC>MOL_PROPERTY
Conf_Id
SciTegic.value.IntegerValue
232

@<SCITEGIC>MOL_PROPERTY
Probability
SciTegic.value.DoubleValue
0.00

@<SCITEGIC>MOL_PROPERTY
Sum Probability
SciTegic.value.DoubleValue
100.00

@<SCITEGIC>MOL_PROPERTY
Delta G
SciTegic.value.DoubleValue
5.503

@<SCITEGIC>MOL_PROPERTY
G
SciTegic.value.DoubleValue
80.969

@<SCITEGIC>MOL_PROPERTY
E
SciTegic.value.DoubleValue
48.050

@<SCITEGIC>MOL_PROPERTY
-TS
SciTegic.value.DoubleValue
32.919

@<SCITEGIC>MOL_PROPERTY
U+W
SciTegic.value.DoubleValue
26.588

@<SCITEGIC>MOL_PROPERTY
U
SciTegic.value.DoubleValue
76.255

@<SCITEGIC>MOL_PROPERTY
W
SciTegic.value.DoubleValue
-49.667

@<SCITEGIC>MOL_PROPERTY
W(PB)
SciTegic.value.DoubleValue
-51.863

@<SCITEGIC>MOL_PROPERTY
W(SA)
SciTegic.value.DoubleValue
2.196

@<SCITEGIC>MOL_PROPERTY
Valence
SciTegic.value.DoubleValue
6.727

@<SCITEGIC>MOL_PROPERTY
Coulomb
SciTegic.value.DoubleValue
69.126

@<SCITEGIC>MOL_PROPERTY
VdW
SciTegic.value.DoubleValue
0.402

@<SCITEGIC>MOL_PROPERTY
VdW6
SciTegic.value.DoubleValue
-8.493

@<SCITEGIC>MOL_PROPERTY
VdW12
SciTegic.value.DoubleValue
8.895

@<SCITEGIC>MOL_PROPERTY
Bond
SciTegic.value.DoubleValue
0.274

@<SCITEGIC>MOL_PROPERTY
Angle
SciTegic.value.DoubleValue
1.571

@<SCITEGIC>MOL_PROPERTY
Pdih
SciTegic.value.DoubleValue
4.881

@<SCITEGIC>MOL_PROPERTY
Idih
SciTegic.value.DoubleValue
0.000

@<SCITEGIC>MOL_PROPERTY
Tether
SciTegic.value.DoubleValue
0.000

@<TRIPOS>MOLECULE
guest-s12_vm2.mol2 : vm2 ligand conformer 181
          26          25           1
SMALL
USER_CHARGES
 
@<TRIPOS>ATOM
       1    N1      20.570169   18.741550   25.879608 N.4        1 MOL1        -0.4857
       2    H1      21.266525   18.007973   25.677358 H          1 MOL1         0.3650
       3    H2      20.445630   18.709781   26.903899 H          1 MOL1         0.3650
       4    C1      19.246706   18.407354   25.204574 C.3        1 MOL1         0.0209
       5    H3      18.526491   19.194091   25.442420 H          1 MOL1         0.0967
       6    H4      18.893556   17.482419   25.667772 H          1 MOL1         0.0967
       7    C2      19.310739   18.188033   23.676775 C.3        1 MOL1        -0.1378
       8    H5      20.280421   17.755811   23.405966 H          1 MOL1         0.0993
       9    H6      18.558719   17.432919   23.412504 H          1 MOL1         0.0993
      10    C3      19.010996   19.474437   22.864394 C.3        1 MOL1        -0.1338
      11    H7      19.675805   20.295967   23.155947 H          1 MOL1         0.0993
      12    H8      17.995795   19.807115   23.121520 H          1 MOL1         0.0993
      13    C4      19.084136   19.263591   21.329556 C.3        1 MOL1        -0.1338
      14    H9      18.809274   18.231508   21.071896 H          1 MOL1         0.0993
      15    H10     18.320583   19.898982   20.859728 H          1 MOL1         0.0993
      16    C5      20.449778   19.626871   20.691743 C.3        1 MOL1        -0.1313
      17    H11     20.664669   20.690943   20.863042 H          1 MOL1         0.0993
      18    H12     20.369049   19.505228   19.602472 H          1 MOL1         0.0993
      19    C6      21.636253   18.777556   21.198173 C.3        1 MOL1        -0.2328
      20    H13     21.859669   18.991163   22.250474 H          1 MOL1         0.1004
      21    H14     22.541971   19.000992   20.619722 H          1 MOL1         0.1004
      22    H15     21.428484   17.704766   21.094573 H          1 MOL1         0.1004
      23    C7      21.099223   20.110608   25.472176 C.3        1 MOL1        -0.0781
      24    H16     20.337853   20.866122   25.677787 H          1 MOL1         0.0978
      25    H17     22.001663   20.329643   26.047240 H          1 MOL1         0.0978
      26    H18     21.338882   20.100930   24.407409 H          1 MOL1         0.0978
@<TRIPOS>BOND
    1     1     2    1
    2     1     3    1
    3     1     4    1
    4     4     5    1
    5     4     6    1
    6     4     7    1
    7     7     8    1
    8     7     9    1
    9     7    10    1
   10    10    11    1
   11    10    12    1
   12    10    13    1
   13    13    14    1
   14    13    15    1
   15    13    16    1
   16    16    17    1
   17    16    18    1
   18    16    19    1
   19    19    20    1
   20    19    21    1
   21    19    22    1
   22     1    23    1
   23    23    24    1
   24    23    25    1
   25    23    26    1
@<TRIPOS>SUBSTRUCTURE
       1 MOL1            1 RESIDUE      1      MOL     
@<SCITEGIC>MOL_PROPERTY
VM2 Rank
SciTegic.value.IntegerValue
181

@<SCITEGIC>MOL_PROPERTY
Conf_Id
SciTegic.value.IntegerValue
844

@<SCITEGIC>MOL_PROPERTY
Probability
SciTegic.value.DoubleValue
0.00

@<SCITEGIC>MOL_PROPERTY
Sum Probability
SciTegic.value.DoubleValue
100.00

@<SCITEGIC>MOL_PROPERTY
Delta G
SciTegic.value.DoubleValue
5.584

@<SCITEGIC>MOL_PROPERTY
G
SciTegic.value.DoubleValue
81.050

@<SCITEGIC>MOL_PROPERTY
E
SciTegic.value.DoubleValue
48.084

@<SCITEGIC>MOL_PROPERTY
-TS
SciTegic.value.DoubleValue
32.965

@<SCITEGIC>MOL_PROPERTY
U+W
SciTegic.value.DoubleValue
26.623

@<SCITEGIC>MOL_PROPERTY
U
SciTegic.value.DoubleValue
76.731

@<SCITEGIC>MOL_PROPERTY
W
SciTegic.value.DoubleValue
-50.109

@<SCITEGIC>MOL_PROPERTY
W(PB)
SciTegic.value.DoubleValue
-52.277

@<SCITEGIC>MOL_PROPERTY
W(SA)
SciTegic.value.DoubleValue
2.169

@<SCITEGIC>MOL_PROPERTY
Valence
SciTegic.value.DoubleValue
6.800

@<SCITEGIC>MOL_PROPERTY
Coulomb
SciTegic.value.DoubleValue
69.648

@<SCITEGIC>MOL_PROPERTY
VdW
SciTegic.value.DoubleValue
0.284

@<SCITEGIC>MOL_PROPERTY
VdW6
SciTegic.value.DoubleValue
-8.795

@<SCITEGIC>MOL_PROPERTY
VdW12
SciTegic.value.DoubleValue
9.078

@<SCITEGIC>MOL_PROPERTY
Bond
SciTegic.value.DoubleValue
0.283

@<SCITEGIC>MOL_PROPERTY
Angle
SciTegic.value.DoubleValue
1.709

@<SCITEGIC>MOL_PROPERTY
Pdih
SciTegic.value.DoubleValue
4.808

@<SCITEGIC>MOL_PROPERTY
Idih
SciTegic.value.DoubleValue
0.000

@<SCITEGIC>MOL_PROPERTY
Tether
SciTegic.value.DoubleValue
0.000

@<TRIPOS>MOLECULE
guest-s12_vm2.mol2 : vm2 ligand conformer 182
          26          25           1
SMALL
USER_CHARGES
 
@<TRIPOS>ATOM
       1    N1      20.177236   18.473200   26.129302 N.4        1 MOL1        -0.4857
       2    H1      20.683485   18.490219   27.028842 H          1 MOL1         0.3650
       3    H2      19.917516   17.484163   25.993228 H          1 MOL1         0.3650
       4    C1      21.115170   18.925149   25.018096 C.3        1 MOL1         0.0209
       5    H3      22.026101   18.331152   25.128362 H          1 MOL1         0.0967
       6    H4      21.378525   19.971890   25.189137 H          1 MOL1         0.0967
       7    C2      20.588028   18.736926   23.578071 C.3        1 MOL1        -0.1378
       8    H5      21.447939   18.493571   22.942055 H          1 MOL1         0.0993
       9    H6      19.909201   17.875043   23.536617 H          1 MOL1         0.0993
      10    C3      19.900273   20.003682   23.012346 C.3        1 MOL1        -0.1338
      11    H7      20.638514   20.814311   22.940783 H          1 MOL1         0.0993
      12    H8      19.135779   20.356935   23.714343 H          1 MOL1         0.0993
      13    C4      19.224167   19.801380   21.631339 C.3        1 MOL1        -0.1338
      14    H9      18.413795   19.063812   21.711863 H          1 MOL1         0.0993
      15    H10     18.735346   20.747986   21.362089 H          1 MOL1         0.0993
      16    C5      20.189417   19.414601   20.480838 C.3        1 MOL1        -0.1313
      17    H11     21.188719   19.833973   20.662816 H          1 MOL1         0.0993
      18    H12     19.831175   19.881794   19.552725 H          1 MOL1         0.0993
      19    C6      20.281273   17.889413   20.239891 C.3        1 MOL1        -0.2328
      20    H13     20.954939   17.673636   19.400535 H          1 MOL1         0.1004
      21    H14     19.296880   17.472017   19.991353 H          1 MOL1         0.1004
      22    H15     20.662686   17.354220   21.116204 H          1 MOL1         0.1004
      23    C7      18.932437   19.345651   26.227118 C.3        1 MOL1        -0.0781
      24    H16     18.344060   19.235457   25.314252 H          1 MOL1         0.0978
      25    H17     18.338202   19.024246   27.085400 H          1 MOL1         0.0978
      26    H18     19.232810   20.387808   26.355338 H          1 MOL1         0.0978
@<TRIPOS>BOND
    1     1     2    1
    2     1     3    1
    3     1     4    1
    4     4     5    1
    5     4     6    1
    6     4     7    1
    7     7     8    1
    8     7     9    1
    9     7    10    1
   10    10    11    1
   11    10    12    1
   12    10    13    1
   13    13    14    1
   14    13    15    1
   15    13    16    1
   16    16    17    1
   17    16    18    1
   18    16    19    1
   19    19    20    1
   20    19    21    1
   21    19    22    1
   22     1    23    1
   23    23    24    1
   24    23    25    1
   25    23    26    1
@<TRIPOS>SUBSTRUCTURE
       1 MOL1            1 RESIDUE      1      MOL     
@<SCITEGIC>MOL_PROPERTY
VM2 Rank
SciTegic.value.IntegerValue
182

@<SCITEGIC>MOL_PROPERTY
Conf_Id
SciTegic.value.IntegerValue
450

@<SCITEGIC>MOL_PROPERTY
Probability
SciTegic.value.DoubleValue
0.00

@<SCITEGIC>MOL_PROPERTY
Sum Probability
SciTegic.value.DoubleValue
100.00

@<SCITEGIC>MOL_PROPERTY
Delta G
SciTegic.value.DoubleValue
5.605

@<SCITEGIC>MOL_PROPERTY
G
SciTegic.value.DoubleValue
81.071

@<SCITEGIC>MOL_PROPERTY
E
SciTegic.value.DoubleValue
48.310

@<SCITEGIC>MOL_PROPERTY
-TS
SciTegic.value.DoubleValue
32.761

@<SCITEGIC>MOL_PROPERTY
U+W
SciTegic.value.DoubleValue
26.848

@<SCITEGIC>MOL_PROPERTY
U
SciTegic.value.DoubleValue
76.536

@<SCITEGIC>MOL_PROPERTY
W
SciTegic.value.DoubleValue
-49.688

@<SCITEGIC>MOL_PROPERTY
W(PB)
SciTegic.value.DoubleValue
-51.899

@<SCITEGIC>MOL_PROPERTY
W(SA)
SciTegic.value.DoubleValue
2.211

@<SCITEGIC>MOL_PROPERTY
Valence
SciTegic.value.DoubleValue
6.954

@<SCITEGIC>MOL_PROPERTY
Coulomb
SciTegic.value.DoubleValue
69.035

@<SCITEGIC>MOL_PROPERTY
VdW
SciTegic.value.DoubleValue
0.547

@<SCITEGIC>MOL_PROPERTY
VdW6
SciTegic.value.DoubleValue
-8.376

@<SCITEGIC>MOL_PROPERTY
VdW12
SciTegic.value.DoubleValue
8.923

@<SCITEGIC>MOL_PROPERTY
Bond
SciTegic.value.DoubleValue
0.281

@<SCITEGIC>MOL_PROPERTY
Angle
SciTegic.value.DoubleValue
1.723

@<SCITEGIC>MOL_PROPERTY
Pdih
SciTegic.value.DoubleValue
4.950

@<SCITEGIC>MOL_PROPERTY
Idih
SciTegic.value.DoubleValue
0.000

@<SCITEGIC>MOL_PROPERTY
Tether
SciTegic.value.DoubleValue
0.000

@<TRIPOS>MOLECULE
guest-s12_vm2.mol2 : vm2 ligand conformer 183
          26          25           1
SMALL
USER_CHARGES
 
@<TRIPOS>ATOM
       1    N1      19.376636   18.982869   25.659677 N.4        1 MOL1        -0.4857
       2    H1      19.150296   18.883001   26.661864 H          1 MOL1         0.3650
       3    H2      18.733768   18.339178   25.175292 H          1 MOL1         0.3650
       4    C1      20.818384   18.563501   25.426677 C.3        1 MOL1         0.0209
       5    H3      21.066029   17.849438   26.216268 H          1 MOL1         0.0967
       6    H4      21.453621   19.441698   25.566319 H          1 MOL1         0.0967
       7    C2      21.127677   17.891756   24.067433 C.3        1 MOL1        -0.1378
       8    H5      22.178575   17.574851   24.098965 H          1 MOL1         0.0993
       9    H6      20.543060   16.968358   23.961707 H          1 MOL1         0.0993
      10    C3      20.936652   18.798810   22.825257 C.3        1 MOL1        -0.1338
      11    H7      21.679340   18.505759   22.071359 H          1 MOL1         0.0993
      12    H8      21.163005   19.841899   23.084494 H          1 MOL1         0.0993
      13    C4      19.525468   18.683097   22.193211 C.3        1 MOL1        -0.1338
      14    H9      19.383746   17.667467   21.798687 H          1 MOL1         0.0993
      15    H10     18.755661   18.817103   22.961786 H          1 MOL1         0.0993
      16    C5      19.271902   19.712089   21.065097 C.3        1 MOL1        -0.1313
      17    H11     19.380259   20.731496   21.461059 H          1 MOL1         0.0993
      18    H12     18.228300   19.621374   20.732658 H          1 MOL1         0.0993
      19    C6      20.201819   19.528006   19.844206 C.3        1 MOL1        -0.2328
      20    H13     21.249458   19.727156   20.101804 H          1 MOL1         0.1004
      21    H14     19.922537   20.221492   19.040479 H          1 MOL1         0.1004
      22    H15     20.133093   18.507535   19.445592 H          1 MOL1         0.1004
      23    C7      19.149462   20.429872   25.235442 C.3        1 MOL1        -0.0781
      24    H16     19.364915   20.536931   24.171224 H          1 MOL1         0.0978
      25    H17     18.109026   20.699814   25.429448 H          1 MOL1         0.0978
      26    H18     19.811456   21.079318   25.812293 H          1 MOL1         0.0978
@<TRIPOS>BOND
    1     1     2    1
    2     1     3    1
    3     1     4    1
    4     4     5    1
    5     4     6    1
    6     4     7    1
    7     7     8    1
    8     7     9    1
    9     7    10    1
   10    10    11    1
   11    10    12    1
   12    10    13    1
   13    13    14    1
   14    13    15    1
   15    13    16    1
   16    16    17    1
   17    16    18    1
   18    16    19    1
   19    19    20    1
   20    19    21    1
   21    19    22    1
   22     1    23    1
   23    23    24    1
   24    23    25    1
   25    23    26    1
@<TRIPOS>SUBSTRUCTURE
       1 MOL1            1 RESIDUE      1      MOL     
@<SCITEGIC>MOL_PROPERTY
VM2 Rank
SciTegic.value.IntegerValue
183

@<SCITEGIC>MOL_PROPERTY
Conf_Id
SciTegic.value.IntegerValue
265

@<SCITEGIC>MOL_PROPERTY
Probability
SciTegic.value.DoubleValue
0.00

@<SCITEGIC>MOL_PROPERTY
Sum Probability
SciTegic.value.DoubleValue
100.00

@<SCITEGIC>MOL_PROPERTY
Delta G
SciTegic.value.DoubleValue
5.687

@<SCITEGIC>MOL_PROPERTY
G
SciTegic.value.DoubleValue
81.153

@<SCITEGIC>MOL_PROPERTY
E
SciTegic.value.DoubleValue
48.075

@<SCITEGIC>MOL_PROPERTY
-TS
SciTegic.value.DoubleValue
33.079

@<SCITEGIC>MOL_PROPERTY
U+W
SciTegic.value.DoubleValue
26.613

@<SCITEGIC>MOL_PROPERTY
U
SciTegic.value.DoubleValue
76.615

@<SCITEGIC>MOL_PROPERTY
W
SciTegic.value.DoubleValue
-50.002

@<SCITEGIC>MOL_PROPERTY
W(PB)
SciTegic.value.DoubleValue
-52.184

@<SCITEGIC>MOL_PROPERTY
W(SA)
SciTegic.value.DoubleValue
2.182

@<SCITEGIC>MOL_PROPERTY
Valence
SciTegic.value.DoubleValue
6.481

@<SCITEGIC>MOL_PROPERTY
Coulomb
SciTegic.value.DoubleValue
70.025

@<SCITEGIC>MOL_PROPERTY
VdW
SciTegic.value.DoubleValue
0.109

@<SCITEGIC>MOL_PROPERTY
VdW6
SciTegic.value.DoubleValue
-9.001

@<SCITEGIC>MOL_PROPERTY
VdW12
SciTegic.value.DoubleValue
9.110

@<SCITEGIC>MOL_PROPERTY
Bond
SciTegic.value.DoubleValue
0.267

@<SCITEGIC>MOL_PROPERTY
Angle
SciTegic.value.DoubleValue
1.571

@<SCITEGIC>MOL_PROPERTY
Pdih
SciTegic.value.DoubleValue
4.643

@<SCITEGIC>MOL_PROPERTY
Idih
SciTegic.value.DoubleValue
0.000

@<SCITEGIC>MOL_PROPERTY
Tether
SciTegic.value.DoubleValue
0.000

@<TRIPOS>MOLECULE
guest-s12_vm2.mol2 : vm2 ligand conformer 184
          26          25           1
SMALL
USER_CHARGES
 
@<TRIPOS>ATOM
       1    N1      19.260475   19.129340   25.674882 N.4        1 MOL1        -0.4857
       2    H1      19.736249   18.638931   26.447683 H          1 MOL1         0.3650
       3    H2      18.274368   19.194745   25.972970 H          1 MOL1         0.3650
       4    C1      19.347585   18.301683   24.400054 C.3        1 MOL1         0.0209
       5    H3      18.832930   18.843191   23.604965 H          1 MOL1         0.0967
       6    H4      18.788134   17.382824   24.593481 H          1 MOL1         0.0967
       7    C2      20.776511   17.912803   23.954827 C.3        1 MOL1        -0.1378
       8    H5      21.411136   17.820638   24.846097 H          1 MOL1         0.0993
       9    H6      20.748199   16.910496   23.507689 H          1 MOL1         0.0993
      10    C3      21.436616   18.893651   22.948453 C.3        1 MOL1        -0.1338
      11    H7      22.525796   18.779914   23.037174 H          1 MOL1         0.0993
      12    H8      21.231785   19.935390   23.220297 H          1 MOL1         0.0993
      13    C4      21.066486   18.641328   21.461455 C.3        1 MOL1        -0.1338
      14    H9      21.688512   19.292545   20.831964 H          1 MOL1         0.0993
      15    H10     21.349251   17.613950   21.193698 H          1 MOL1         0.0993
      16    C5      19.581231   18.864278   21.082105 C.3        1 MOL1        -0.1313
      17    H11     18.937560   18.165718   21.631781 H          1 MOL1         0.0993
      18    H12     19.452686   18.611014   20.020454 H          1 MOL1         0.0993
      19    C6      19.103859   20.318474   21.300500 C.3        1 MOL1        -0.2328
      20    H13     19.728010   21.025152   20.738408 H          1 MOL1         0.1004
      21    H14     19.135804   20.603553   22.358433 H          1 MOL1         0.1004
      22    H15     18.068660   20.439152   20.956079 H          1 MOL1         0.1004
      23    C7      19.835238   20.528444   25.494723 C.3        1 MOL1        -0.0781
      24    H16     19.694703   21.093323   26.418967 H          1 MOL1         0.0978
      25    H17     20.901125   20.452757   25.271285 H          1 MOL1         0.0978
      26    H18     19.315589   21.028062   24.674583 H          1 MOL1         0.0978
@<TRIPOS>BOND
    1     1     2    1
    2     1     3    1
    3     1     4    1
    4     4     5    1
    5     4     6    1
    6     4     7    1
    7     7     8    1
    8     7     9    1
    9     7    10    1
   10    10    11    1
   11    10    12    1
   12    10    13    1
   13    13    14    1
   14    13    15    1
   15    13    16    1
   16    16    17    1
   17    16    18    1
   18    16    19    1
   19    19    20    1
   20    19    21    1
   21    19    22    1
   22     1    23    1
   23    23    24    1
   24    23    25    1
   25    23    26    1
@<TRIPOS>SUBSTRUCTURE
       1 MOL1            1 RESIDUE      1      MOL     
@<SCITEGIC>MOL_PROPERTY
VM2 Rank
SciTegic.value.IntegerValue
184

@<SCITEGIC>MOL_PROPERTY
Conf_Id
SciTegic.value.IntegerValue
566

@<SCITEGIC>MOL_PROPERTY
Probability
SciTegic.value.DoubleValue
0.00

@<SCITEGIC>MOL_PROPERTY
Sum Probability
SciTegic.value.DoubleValue
100.00

@<SCITEGIC>MOL_PROPERTY
Delta G
SciTegic.value.DoubleValue
5.793

@<SCITEGIC>MOL_PROPERTY
G
SciTegic.value.DoubleValue
81.259

@<SCITEGIC>MOL_PROPERTY
E
SciTegic.value.DoubleValue
47.651

@<SCITEGIC>MOL_PROPERTY
-TS
SciTegic.value.DoubleValue
33.608

@<SCITEGIC>MOL_PROPERTY
U+W
SciTegic.value.DoubleValue
26.190

@<SCITEGIC>MOL_PROPERTY
U
SciTegic.value.DoubleValue
76.611

@<SCITEGIC>MOL_PROPERTY
W
SciTegic.value.DoubleValue
-50.422

@<SCITEGIC>MOL_PROPERTY
W(PB)
SciTegic.value.DoubleValue
-52.560

@<SCITEGIC>MOL_PROPERTY
W(SA)
SciTegic.value.DoubleValue
2.138

@<SCITEGIC>MOL_PROPERTY
Valence
SciTegic.value.DoubleValue
6.664

@<SCITEGIC>MOL_PROPERTY
Coulomb
SciTegic.value.DoubleValue
69.963

@<SCITEGIC>MOL_PROPERTY
VdW
SciTegic.value.DoubleValue
-0.016

@<SCITEGIC>MOL_PROPERTY
VdW6
SciTegic.value.DoubleValue
-9.993

@<SCITEGIC>MOL_PROPERTY
VdW12
SciTegic.value.DoubleValue
9.977

@<SCITEGIC>MOL_PROPERTY
Bond
SciTegic.value.DoubleValue
0.317

@<SCITEGIC>MOL_PROPERTY
Angle
SciTegic.value.DoubleValue
2.088

@<SCITEGIC>MOL_PROPERTY
Pdih
SciTegic.value.DoubleValue
4.259

@<SCITEGIC>MOL_PROPERTY
Idih
SciTegic.value.DoubleValue
0.000

@<SCITEGIC>MOL_PROPERTY
Tether
SciTegic.value.DoubleValue
0.000

@<TRIPOS>MOLECULE
guest-s12_vm2.mol2 : vm2 ligand conformer 185
          26          25           1
SMALL
USER_CHARGES
 
@<TRIPOS>ATOM
       1    N1      20.265494   18.711578   25.758193 N.4        1 MOL1        -0.4857
       2    H1      20.879427   18.209220   26.418560 H          1 MOL1         0.3650
       3    H2      19.321467   18.638017   26.166521 H          1 MOL1         0.3650
       4    C1      20.311427   18.016425   24.406034 C.3        1 MOL1         0.0209
       5    H3      20.490528   16.957581   24.609478 H          1 MOL1         0.0967
       6    H4      21.171206   18.396950   23.849699 H          1 MOL1         0.0967
       7    C2      19.023180   18.122803   23.557060 C.3        1 MOL1        -0.1378
       8    H5      19.087720   17.410683   22.725589 H          1 MOL1         0.0993
       9    H6      18.170438   17.786543   24.161252 H          1 MOL1         0.0993
      10    C3      18.718071   19.531676   22.990245 C.3        1 MOL1        -0.1338
      11    H7      18.458968   20.201393   23.820110 H          1 MOL1         0.0993
      12    H8      17.810008   19.472429   22.374681 H          1 MOL1         0.0993
      13    C4      19.850656   20.183186   22.150575 C.3        1 MOL1        -0.1338
      14    H9      19.519095   21.198616   21.893056 H          1 MOL1         0.0993
      15    H10     20.757177   20.319180   22.754238 H          1 MOL1         0.0993
      16    C5      20.191836   19.448556   20.827986 C.3        1 MOL1        -0.1313
      17    H11     20.507745   20.198095   20.088816 H          1 MOL1         0.0993
      18    H12     19.292389   18.974961   20.410635 H          1 MOL1         0.0993
      19    C6      21.330978   18.411268   20.963433 C.3        1 MOL1        -0.2328
      20    H13     21.055947   17.577388   21.617203 H          1 MOL1         0.1004
      21    H14     22.240691   18.875335   21.365866 H          1 MOL1         0.1004
      22    H15     21.580725   17.988529   19.981699 H          1 MOL1         0.1004
      23    C7      20.716358   20.164507   25.663475 C.3        1 MOL1        -0.0781
      24    H16     21.730395   20.198466   25.259407 H          1 MOL1         0.0978
      25    H17     20.040281   20.717312   25.010556 H          1 MOL1         0.0978
      26    H18     20.703849   20.606945   26.662032 H          1 MOL1         0.0978
@<TRIPOS>BOND
    1     1     2    1
    2     1     3    1
    3     1     4    1
    4     4     5    1
    5     4     6    1
    6     4     7    1
    7     7     8    1
    8     7     9    1
    9     7    10    1
   10    10    11    1
   11    10    12    1
   12    10    13    1
   13    13    14    1
   14    13    15    1
   15    13    16    1
   16    16    17    1
   17    16    18    1
   18    16    19    1
   19    19    20    1
   20    19    21    1
   21    19    22    1
   22     1    23    1
   23    23    24    1
   24    23    25    1
   25    23    26    1
@<TRIPOS>SUBSTRUCTURE
       1 MOL1            1 RESIDUE      1      MOL     
@<SCITEGIC>MOL_PROPERTY
VM2 Rank
SciTegic.value.IntegerValue
185

@<SCITEGIC>MOL_PROPERTY
Conf_Id
SciTegic.value.IntegerValue
537

@<SCITEGIC>MOL_PROPERTY
Probability
SciTegic.value.DoubleValue
0.00

@<SCITEGIC>MOL_PROPERTY
Sum Probability
SciTegic.value.DoubleValue
100.00

@<SCITEGIC>MOL_PROPERTY
Delta G
SciTegic.value.DoubleValue
5.872

@<SCITEGIC>MOL_PROPERTY
G
SciTegic.value.DoubleValue
81.338

@<SCITEGIC>MOL_PROPERTY
E
SciTegic.value.DoubleValue
47.911

@<SCITEGIC>MOL_PROPERTY
-TS
SciTegic.value.DoubleValue
33.427

@<SCITEGIC>MOL_PROPERTY
U+W
SciTegic.value.DoubleValue
26.449

@<SCITEGIC>MOL_PROPERTY
U
SciTegic.value.DoubleValue
76.759

@<SCITEGIC>MOL_PROPERTY
W
SciTegic.value.DoubleValue
-50.310

@<SCITEGIC>MOL_PROPERTY
W(PB)
SciTegic.value.DoubleValue
-52.453

@<SCITEGIC>MOL_PROPERTY
W(SA)
SciTegic.value.DoubleValue
2.143

@<SCITEGIC>MOL_PROPERTY
Valence
SciTegic.value.DoubleValue
6.999

@<SCITEGIC>MOL_PROPERTY
Coulomb
SciTegic.value.DoubleValue
69.986

@<SCITEGIC>MOL_PROPERTY
VdW
SciTegic.value.DoubleValue
-0.226

@<SCITEGIC>MOL_PROPERTY
VdW6
SciTegic.value.DoubleValue
-10.120

@<SCITEGIC>MOL_PROPERTY
VdW12
SciTegic.value.DoubleValue
9.894

@<SCITEGIC>MOL_PROPERTY
Bond
SciTegic.value.DoubleValue
0.307

@<SCITEGIC>MOL_PROPERTY
Angle
SciTegic.value.DoubleValue
2.297

@<SCITEGIC>MOL_PROPERTY
Pdih
SciTegic.value.DoubleValue
4.395

@<SCITEGIC>MOL_PROPERTY
Idih
SciTegic.value.DoubleValue
0.000

@<SCITEGIC>MOL_PROPERTY
Tether
SciTegic.value.DoubleValue
0.000

@<TRIPOS>MOLECULE
guest-s12_vm2.mol2 : vm2 ligand conformer 186
          26          25           1
SMALL
USER_CHARGES
 
@<TRIPOS>ATOM
       1    N1      19.540782   18.675924   25.652448 N.4        1 MOL1        -0.4857
       2    H1      20.263046   18.363005   26.319676 H          1 MOL1         0.3650
       3    H2      19.039686   17.819924   25.368822 H          1 MOL1         0.3650
       4    C1      20.189068   19.327681   24.447968 C.3        1 MOL1         0.0209
       5    H3      20.725949   20.213892   24.795472 H          1 MOL1         0.0967
       6    H4      19.391692   19.653546   23.778113 H          1 MOL1         0.0967
       7    C2      21.161798   18.394500   23.700313 C.3        1 MOL1        -0.1378
       8    H5      21.953838   18.097755   24.400706 H          1 MOL1         0.0993
       9    H6      20.654513   17.469081   23.397922 H          1 MOL1         0.0993
      10    C3      21.818801   19.067346   22.469732 C.3        1 MOL1        -0.1338
      11    H7      22.788309   18.580035   22.296285 H          1 MOL1         0.0993
      12    H8      22.053663   20.116394   22.697568 H          1 MOL1         0.0993
      13    C4      21.012607   18.979246   21.145255 C.3        1 MOL1        -0.1338
      14    H9      21.635054   19.421582   20.355038 H          1 MOL1         0.0993
      15    H10     20.878974   17.927697   20.856037 H          1 MOL1         0.0993
      16    C5      19.646727   19.711819   21.139757 C.3        1 MOL1        -0.1313
      17    H11     19.488052   20.147878   20.143410 H          1 MOL1         0.0993
      18    H12     19.663237   20.561271   21.835854 H          1 MOL1         0.0993
      19    C6      18.451878   18.776963   21.442075 C.3        1 MOL1        -0.2328
      20    H13     18.363066   17.997811   20.673905 H          1 MOL1         0.1004
      21    H14     17.511855   19.343668   21.450544 H          1 MOL1         0.1004
      22    H15     18.550638   18.278154   22.412097 H          1 MOL1         0.1004
      23    C7      18.586337   19.656522   26.319452 C.3        1 MOL1        -0.0781
      24    H16     17.813052   19.947419   25.605056 H          1 MOL1         0.0978
      25    H17     18.126308   19.175601   27.185598 H          1 MOL1         0.0978
      26    H18     19.144447   20.538731   26.640634 H          1 MOL1         0.0978
@<TRIPOS>BOND
    1     1     2    1
    2     1     3    1
    3     1     4    1
    4     4     5    1
    5     4     6    1
    6     4     7    1
    7     7     8    1
    8     7     9    1
    9     7    10    1
   10    10    11    1
   11    10    12    1
   12    10    13    1
   13    13    14    1
   14    13    15    1
   15    13    16    1
   16    16    17    1
   17    16    18    1
   18    16    19    1
   19    19    20    1
   20    19    21    1
   21    19    22    1
   22     1    23    1
   23    23    24    1
   24    23    25    1
   25    23    26    1
@<TRIPOS>SUBSTRUCTURE
       1 MOL1            1 RESIDUE      1      MOL     
@<SCITEGIC>MOL_PROPERTY
VM2 Rank
SciTegic.value.IntegerValue
186

@<SCITEGIC>MOL_PROPERTY
Conf_Id
SciTegic.value.IntegerValue
464

@<SCITEGIC>MOL_PROPERTY
Probability
SciTegic.value.DoubleValue
0.00

@<SCITEGIC>MOL_PROPERTY
Sum Probability
SciTegic.value.DoubleValue
100.00

@<SCITEGIC>MOL_PROPERTY
Delta G
SciTegic.value.DoubleValue
5.923

@<SCITEGIC>MOL_PROPERTY
G
SciTegic.value.DoubleValue
81.389

@<SCITEGIC>MOL_PROPERTY
E
SciTegic.value.DoubleValue
48.350

@<SCITEGIC>MOL_PROPERTY
-TS
SciTegic.value.DoubleValue
33.039

@<SCITEGIC>MOL_PROPERTY
U+W
SciTegic.value.DoubleValue
26.889

@<SCITEGIC>MOL_PROPERTY
U
SciTegic.value.DoubleValue
76.568

@<SCITEGIC>MOL_PROPERTY
W
SciTegic.value.DoubleValue
-49.679

@<SCITEGIC>MOL_PROPERTY
W(PB)
SciTegic.value.DoubleValue
-51.903

@<SCITEGIC>MOL_PROPERTY
W(SA)
SciTegic.value.DoubleValue
2.224

@<SCITEGIC>MOL_PROPERTY
Valence
SciTegic.value.DoubleValue
6.604

@<SCITEGIC>MOL_PROPERTY
Coulomb
SciTegic.value.DoubleValue
70.083

@<SCITEGIC>MOL_PROPERTY
VdW
SciTegic.value.DoubleValue
-0.119

@<SCITEGIC>MOL_PROPERTY
VdW6
SciTegic.value.DoubleValue
-8.384

@<SCITEGIC>MOL_PROPERTY
VdW12
SciTegic.value.DoubleValue
8.265

@<SCITEGIC>MOL_PROPERTY
Bond
SciTegic.value.DoubleValue
0.244

@<SCITEGIC>MOL_PROPERTY
Angle
SciTegic.value.DoubleValue
1.737

@<SCITEGIC>MOL_PROPERTY
Pdih
SciTegic.value.DoubleValue
4.622

@<SCITEGIC>MOL_PROPERTY
Idih
SciTegic.value.DoubleValue
0.000

@<SCITEGIC>MOL_PROPERTY
Tether
SciTegic.value.DoubleValue
0.000

@<TRIPOS>MOLECULE
guest-s12_vm2.mol2 : vm2 ligand conformer 187
          26          25           1
SMALL
USER_CHARGES
 
@<TRIPOS>ATOM
       1    N1      20.464409   18.770353   25.685140 N.4        1 MOL1        -0.4857
       2    H1      21.146896   18.035494   25.443339 H          1 MOL1         0.3650
       3    H2      19.775488   18.312964   26.302359 H          1 MOL1         0.3650
       4    C1      19.783608   19.286238   24.433654 C.3        1 MOL1         0.0209
       5    H3      20.543468   19.771509   23.818973 H          1 MOL1         0.0967
       6    H4      19.055587   20.042990   24.736449 H          1 MOL1         0.0967
       7    C2      19.074510   18.181045   23.626348 C.3        1 MOL1        -0.1378
       8    H5      19.778366   17.379534   23.366840 H          1 MOL1         0.0993
       9    H6      18.311770   17.725217   24.271628 H          1 MOL1         0.0993
      10    C3      18.382864   18.715987   22.348003 C.3        1 MOL1        -0.1338
      11    H7      17.925414   19.694236   22.551325 H          1 MOL1         0.0993
      12    H8      17.546462   18.044001   22.110583 H          1 MOL1         0.0993
      13    C4      19.280934   18.802184   21.083887 C.3        1 MOL1        -0.1338
      14    H9      19.644274   17.801460   20.812239 H          1 MOL1         0.0993
      15    H10     18.638803   19.115238   20.248894 H          1 MOL1         0.0993
      16    C5      20.467503   19.795745   21.168791 C.3        1 MOL1        -0.1313
      17    H11     20.230917   20.619362   21.855869 H          1 MOL1         0.0993
      18    H12     20.604159   20.261936   20.182879 H          1 MOL1         0.0993
      19    C6      21.802478   19.119582   21.560785 C.3        1 MOL1        -0.2328
      20    H13     21.738939   18.604377   22.525166 H          1 MOL1         0.1004
      21    H14     22.605636   19.864502   21.630801 H          1 MOL1         0.1004
      22    H15     22.100441   18.379822   20.806449 H          1 MOL1         0.1004
      23    C7      21.151694   19.918865   26.410393 C.3        1 MOL1        -0.0781
      24    H16     21.898174   20.365385   25.749833 H          1 MOL1         0.0978
      25    H17     20.405578   20.667561   26.685533 H          1 MOL1         0.0978
      26    H18     21.637772   19.534643   27.309962 H          1 MOL1         0.0978
@<TRIPOS>BOND
    1     1     2    1
    2     1     3    1
    3     1     4    1
    4     4     5    1
    5     4     6    1
    6     4     7    1
    7     7     8    1
    8     7     9    1
    9     7    10    1
   10    10    11    1
   11    10    12    1
   12    10    13    1
   13    13    14    1
   14    13    15    1
   15    13    16    1
   16    16    17    1
   17    16    18    1
   18    16    19    1
   19    19    20    1
   20    19    21    1
   21    19    22    1
   22     1    23    1
   23    23    24    1
   24    23    25    1
   25    23    26    1
@<TRIPOS>SUBSTRUCTURE
       1 MOL1            1 RESIDUE      1      MOL     
@<SCITEGIC>MOL_PROPERTY
VM2 Rank
SciTegic.value.IntegerValue
187

@<SCITEGIC>MOL_PROPERTY
Conf_Id
SciTegic.value.IntegerValue
1245

@<SCITEGIC>MOL_PROPERTY
Probability
SciTegic.value.DoubleValue
0.00

@<SCITEGIC>MOL_PROPERTY
Sum Probability
SciTegic.value.DoubleValue
100.00

@<SCITEGIC>MOL_PROPERTY
Delta G
SciTegic.value.DoubleValue
5.959

@<SCITEGIC>MOL_PROPERTY
G
SciTegic.value.DoubleValue
81.425

@<SCITEGIC>MOL_PROPERTY
E
SciTegic.value.DoubleValue
48.386

@<SCITEGIC>MOL_PROPERTY
-TS
SciTegic.value.DoubleValue
33.039

@<SCITEGIC>MOL_PROPERTY
U+W
SciTegic.value.DoubleValue
26.925

@<SCITEGIC>MOL_PROPERTY
U
SciTegic.value.DoubleValue
76.568

@<SCITEGIC>MOL_PROPERTY
W
SciTegic.value.DoubleValue
-49.643

@<SCITEGIC>MOL_PROPERTY
W(PB)
SciTegic.value.DoubleValue
-51.858

@<SCITEGIC>MOL_PROPERTY
W(SA)
SciTegic.value.DoubleValue
2.215

@<SCITEGIC>MOL_PROPERTY
Valence
SciTegic.value.DoubleValue
6.604

@<SCITEGIC>MOL_PROPERTY
Coulomb
SciTegic.value.DoubleValue
70.083

@<SCITEGIC>MOL_PROPERTY
VdW
SciTegic.value.DoubleValue
-0.119

@<SCITEGIC>MOL_PROPERTY
VdW6
SciTegic.value.DoubleValue
-8.383

@<SCITEGIC>MOL_PROPERTY
VdW12
SciTegic.value.DoubleValue
8.264

@<SCITEGIC>MOL_PROPERTY
Bond
SciTegic.value.DoubleValue
0.244

@<SCITEGIC>MOL_PROPERTY
Angle
SciTegic.value.DoubleValue
1.738

@<SCITEGIC>MOL_PROPERTY
Pdih
SciTegic.value.DoubleValue
4.622

@<SCITEGIC>MOL_PROPERTY
Idih
SciTegic.value.DoubleValue
0.000

@<SCITEGIC>MOL_PROPERTY
Tether
SciTegic.value.DoubleValue
0.000

@<TRIPOS>MOLECULE
guest-s12_vm2.mol2 : vm2 ligand conformer 188
          26          25           1
SMALL
USER_CHARGES
 
@<TRIPOS>ATOM
       1    N1      20.115468   19.644101   25.802842 N.4        1 MOL1        -0.4857
       2    H1      19.495164   19.123051   26.441585 H          1 MOL1         0.3650
       3    H2      20.147804   20.602100   26.186112 H          1 MOL1         0.3650
       4    C1      19.522190   19.674671   24.404437 C.3        1 MOL1         0.0209
       5    H3      20.226648   20.196377   23.754453 H          1 MOL1         0.0967
       6    H4      18.606635   20.269471   24.454430 H          1 MOL1         0.0967
       7    C2      19.182163   18.284760   23.823555 C.3        1 MOL1        -0.1378
       8    H5      20.078065   17.654129   23.763285 H          1 MOL1         0.0993
       9    H6      18.499346   17.783817   24.522414 H          1 MOL1         0.0993
      10    C3      18.496109   18.361805   22.436997 C.3        1 MOL1        -0.1338
      11    H7      17.795607   19.208098   22.412669 H          1 MOL1         0.0993
      12    H8      17.875365   17.463032   22.317178 H          1 MOL1         0.0993
      13    C4      19.453032   18.430017   21.215799 C.3        1 MOL1        -0.1338
      14    H9      20.070850   17.522480   21.171816 H          1 MOL1         0.0993
      15    H10     18.829821   18.402107   20.311168 H          1 MOL1         0.0993
      16    C5      20.350717   19.690876   21.136138 C.3        1 MOL1        -0.1313
      17    H11     19.865397   20.540430   21.635185 H          1 MOL1         0.0993
      18    H12     20.450663   19.983663   20.081481 H          1 MOL1         0.0993
      19    C6      21.772433   19.461799   21.700535 C.3        1 MOL1        -0.2328
      20    H13     22.304835   18.699526   21.116991 H          1 MOL1         0.1004
      21    H14     21.754115   19.129231   22.743651 H          1 MOL1         0.1004
      22    H15     22.360221   20.387586   21.652977 H          1 MOL1         0.1004
      23    C7      21.515887   19.041970   25.796698 C.3        1 MOL1        -0.0781
      24    H16     21.464518   18.009701   25.444866 H          1 MOL1         0.0978
      25    H17     22.155819   19.628868   25.134314 H          1 MOL1         0.0978
      26    H18     21.918167   19.063956   26.811968 H          1 MOL1         0.0978
@<TRIPOS>BOND
    1     1     2    1
    2     1     3    1
    3     1     4    1
    4     4     5    1
    5     4     6    1
    6     4     7    1
    7     7     8    1
    8     7     9    1
    9     7    10    1
   10    10    11    1
   11    10    12    1
   12    10    13    1
   13    13    14    1
   14    13    15    1
   15    13    16    1
   16    16    17    1
   17    16    18    1
   18    16    19    1
   19    19    20    1
   20    19    21    1
   21    19    22    1
   22     1    23    1
   23    23    24    1
   24    23    25    1
   25    23    26    1
@<TRIPOS>SUBSTRUCTURE
       1 MOL1            1 RESIDUE      1      MOL     
@<SCITEGIC>MOL_PROPERTY
VM2 Rank
SciTegic.value.IntegerValue
188

@<SCITEGIC>MOL_PROPERTY
Conf_Id
SciTegic.value.IntegerValue
1334

@<SCITEGIC>MOL_PROPERTY
Probability
SciTegic.value.DoubleValue
0.00

@<SCITEGIC>MOL_PROPERTY
Sum Probability
SciTegic.value.DoubleValue
100.00

@<SCITEGIC>MOL_PROPERTY
Delta G
SciTegic.value.DoubleValue
5.959

@<SCITEGIC>MOL_PROPERTY
G
SciTegic.value.DoubleValue
81.425

@<SCITEGIC>MOL_PROPERTY
E
SciTegic.value.DoubleValue
48.034

@<SCITEGIC>MOL_PROPERTY
-TS
SciTegic.value.DoubleValue
33.391

@<SCITEGIC>MOL_PROPERTY
U+W
SciTegic.value.DoubleValue
26.572

@<SCITEGIC>MOL_PROPERTY
U
SciTegic.value.DoubleValue
76.813

@<SCITEGIC>MOL_PROPERTY
W
SciTegic.value.DoubleValue
-50.240

@<SCITEGIC>MOL_PROPERTY
W(PB)
SciTegic.value.DoubleValue
-52.373

@<SCITEGIC>MOL_PROPERTY
W(SA)
SciTegic.value.DoubleValue
2.133

@<SCITEGIC>MOL_PROPERTY
Valence
SciTegic.value.DoubleValue
6.903

@<SCITEGIC>MOL_PROPERTY
Coulomb
SciTegic.value.DoubleValue
69.931

@<SCITEGIC>MOL_PROPERTY
VdW
SciTegic.value.DoubleValue
-0.021

@<SCITEGIC>MOL_PROPERTY
VdW6
SciTegic.value.DoubleValue
-9.386

@<SCITEGIC>MOL_PROPERTY
VdW12
SciTegic.value.DoubleValue
9.365

@<SCITEGIC>MOL_PROPERTY
Bond
SciTegic.value.DoubleValue
0.281

@<SCITEGIC>MOL_PROPERTY
Angle
SciTegic.value.DoubleValue
1.859

@<SCITEGIC>MOL_PROPERTY
Pdih
SciTegic.value.DoubleValue
4.763

@<SCITEGIC>MOL_PROPERTY
Idih
SciTegic.value.DoubleValue
0.000

@<SCITEGIC>MOL_PROPERTY
Tether
SciTegic.value.DoubleValue
0.000

@<TRIPOS>MOLECULE
guest-s12_vm2.mol2 : vm2 ligand conformer 189
          26          25           1
SMALL
USER_CHARGES
 
@<TRIPOS>ATOM
       1    N1      19.696509   19.601248   25.787983 N.4        1 MOL1        -0.4857
       2    H1      19.444001   20.530086   26.161083 H          1 MOL1         0.3650
       3    H2      20.363218   19.212157   26.472359 H          1 MOL1         0.3650
       4    C1      20.367745   19.761304   24.434366 C.3        1 MOL1         0.0209
       5    H3      21.138093   20.528804   24.544060 H          1 MOL1         0.0967
       6    H4      19.619520   20.134186   23.732914 H          1 MOL1         0.0967
       7    C2      21.021996   18.473232   23.888726 C.3        1 MOL1        -0.1378
       8    H5      21.741429   18.115918   24.637278 H          1 MOL1         0.0993
       9    H6      20.278812   17.674710   23.770369 H          1 MOL1         0.0993
      10    C3      21.773650   18.697544   22.553115 C.3        1 MOL1        -0.1338
      11    H7      22.570355   17.943961   22.483520 H          1 MOL1         0.0993
      12    H8      22.288229   19.668297   22.571852 H          1 MOL1         0.0993
      13    C4      20.910684   18.579358   21.267423 C.3        1 MOL1        -0.1338
      14    H9      21.588438   18.684756   20.408895 H          1 MOL1         0.0993
      15    H10     20.494085   17.565853   21.186752 H          1 MOL1         0.0993
      16    C5      19.784089   19.632838   21.116066 C.3        1 MOL1        -0.1313
      17    H11     19.701022   19.906890   20.054930 H          1 MOL1         0.0993
      18    H12     20.051142   20.559465   21.641777 H          1 MOL1         0.0993
      19    C6      18.402271   19.116530   21.581142 C.3        1 MOL1        -0.2328
      20    H13     18.077465   18.266469   20.967194 H          1 MOL1         0.1004
      21    H14     17.643981   19.904421   21.485952 H          1 MOL1         0.1004
      22    H15     18.414481   18.787035   22.625323 H          1 MOL1         0.1004
      23    C7      18.451056   18.727946   25.688178 C.3        1 MOL1        -0.0781
      24    H16     18.734997   17.730014   25.348306 H          1 MOL1         0.0978
      25    H17     17.982580   18.660771   26.672608 H          1 MOL1         0.0978
      26    H18     17.753482   19.177710   24.978377 H          1 MOL1         0.0978
@<TRIPOS>BOND
    1     1     2    1
    2     1     3    1
    3     1     4    1
    4     4     5    1
    5     4     6    1
    6     4     7    1
    7     7     8    1
    8     7     9    1
    9     7    10    1
   10    10    11    1
   11    10    12    1
   12    10    13    1
   13    13    14    1
   14    13    15    1
   15    13    16    1
   16    16    17    1
   17    16    18    1
   18    16    19    1
   19    19    20    1
   20    19    21    1
   21    19    22    1
   22     1    23    1
   23    23    24    1
   24    23    25    1
   25    23    26    1
@<TRIPOS>SUBSTRUCTURE
       1 MOL1            1 RESIDUE      1      MOL     
@<SCITEGIC>MOL_PROPERTY
VM2 Rank
SciTegic.value.IntegerValue
189

@<SCITEGIC>MOL_PROPERTY
Conf_Id
SciTegic.value.IntegerValue
860

@<SCITEGIC>MOL_PROPERTY
Probability
SciTegic.value.DoubleValue
0.00

@<SCITEGIC>MOL_PROPERTY
Sum Probability
SciTegic.value.DoubleValue
100.00

@<SCITEGIC>MOL_PROPERTY
Delta G
SciTegic.value.DoubleValue
5.987

@<SCITEGIC>MOL_PROPERTY
G
SciTegic.value.DoubleValue
81.453

@<SCITEGIC>MOL_PROPERTY
E
SciTegic.value.DoubleValue
48.062

@<SCITEGIC>MOL_PROPERTY
-TS
SciTegic.value.DoubleValue
33.391

@<SCITEGIC>MOL_PROPERTY
U+W
SciTegic.value.DoubleValue
26.600

@<SCITEGIC>MOL_PROPERTY
U
SciTegic.value.DoubleValue
76.813

@<SCITEGIC>MOL_PROPERTY
W
SciTegic.value.DoubleValue
-50.213

@<SCITEGIC>MOL_PROPERTY
W(PB)
SciTegic.value.DoubleValue
-52.359

@<SCITEGIC>MOL_PROPERTY
W(SA)
SciTegic.value.DoubleValue
2.146

@<SCITEGIC>MOL_PROPERTY
Valence
SciTegic.value.DoubleValue
6.903

@<SCITEGIC>MOL_PROPERTY
Coulomb
SciTegic.value.DoubleValue
69.931

@<SCITEGIC>MOL_PROPERTY
VdW
SciTegic.value.DoubleValue
-0.021

@<SCITEGIC>MOL_PROPERTY
VdW6
SciTegic.value.DoubleValue
-9.386

@<SCITEGIC>MOL_PROPERTY
VdW12
SciTegic.value.DoubleValue
9.365

@<SCITEGIC>MOL_PROPERTY
Bond
SciTegic.value.DoubleValue
0.281

@<SCITEGIC>MOL_PROPERTY
Angle
SciTegic.value.DoubleValue
1.859

@<SCITEGIC>MOL_PROPERTY
Pdih
SciTegic.value.DoubleValue
4.763

@<SCITEGIC>MOL_PROPERTY
Idih
SciTegic.value.DoubleValue
0.000

@<SCITEGIC>MOL_PROPERTY
Tether
SciTegic.value.DoubleValue
0.000

@<TRIPOS>MOLECULE
guest-s12_vm2.mol2 : vm2 ligand conformer 190
          26          25           1
SMALL
USER_CHARGES
 
@<TRIPOS>ATOM
       1    N1      20.945042   18.588722   25.498741 N.4        1 MOL1        -0.4857
       2    H1      21.937608   18.790670   25.698323 H          1 MOL1         0.3650
       3    H2      20.922838   17.591453   25.236263 H          1 MOL1         0.3650
       4    C1      20.474093   19.449619   24.338420 C.3        1 MOL1         0.0209
       5    H3      21.217516   19.354698   23.545201 H          1 MOL1         0.0967
       6    H4      20.470299   20.490203   24.672259 H          1 MOL1         0.0967
       7    C2      19.082203   19.073548   23.785039 C.3        1 MOL1        -0.1378
       8    H5      19.041886   18.005533   23.534994 H          1 MOL1         0.0993
       9    H6      18.340197   19.232526   24.578031 H          1 MOL1         0.0993
      10    C3      18.671453   19.923685   22.557254 C.3        1 MOL1        -0.1338
      11    H7      19.006762   20.961538   22.691281 H          1 MOL1         0.0993
      12    H8      17.573886   19.970611   22.531925 H          1 MOL1         0.0993
      13    C4      19.143140   19.386470   21.178555 C.3        1 MOL1        -0.1338
      14    H9      18.714386   18.391407   20.996168 H          1 MOL1         0.0993
      15    H10     18.705824   20.037379   20.408742 H          1 MOL1         0.0993
      16    C5      20.676893   19.355351   20.957855 C.3        1 MOL1        -0.1313
      17    H11     21.166050   20.142528   21.547293 H          1 MOL1         0.0993
      18    H12     20.883454   19.600405   19.906514 H          1 MOL1         0.0993
      19    C6      21.308313   17.974565   21.253676 C.3        1 MOL1        -0.2328
      20    H13     20.903594   17.208802   20.579239 H          1 MOL1         0.1004
      21    H14     21.121992   17.645084   22.281273 H          1 MOL1         0.1004
      22    H15     22.395214   18.007970   21.103995 H          1 MOL1         0.1004
      23    C7      20.106863   18.838040   26.747460 C.3        1 MOL1        -0.0781
      24    H16     20.163278   19.896173   27.011998 H          1 MOL1         0.0978
      25    H17     19.069894   18.560150   26.548719 H          1 MOL1         0.0978
      26    H18     20.498432   18.231734   27.567291 H          1 MOL1         0.0978
@<TRIPOS>BOND
    1     1     2    1
    2     1     3    1
    3     1     4    1
    4     4     5    1
    5     4     6    1
    6     4     7    1
    7     7     8    1
    8     7     9    1
    9     7    10    1
   10    10    11    1
   11    10    12    1
   12    10    13    1
   13    13    14    1
   14    13    15    1
   15    13    16    1
   16    16    17    1
   17    16    18    1
   18    16    19    1
   19    19    20    1
   20    19    21    1
   21    19    22    1
   22     1    23    1
   23    23    24    1
   24    23    25    1
   25    23    26    1
@<TRIPOS>SUBSTRUCTURE
       1 MOL1            1 RESIDUE      1      MOL     
@<SCITEGIC>MOL_PROPERTY
VM2 Rank
SciTegic.value.IntegerValue
190

@<SCITEGIC>MOL_PROPERTY
Conf_Id
SciTegic.value.IntegerValue
1103

@<SCITEGIC>MOL_PROPERTY
Probability
SciTegic.value.DoubleValue
0.00

@<SCITEGIC>MOL_PROPERTY
Sum Probability
SciTegic.value.DoubleValue
100.00

@<SCITEGIC>MOL_PROPERTY
Delta G
SciTegic.value.DoubleValue
6.378

@<SCITEGIC>MOL_PROPERTY
G
SciTegic.value.DoubleValue
81.844

@<SCITEGIC>MOL_PROPERTY
E
SciTegic.value.DoubleValue
48.629

@<SCITEGIC>MOL_PROPERTY
-TS
SciTegic.value.DoubleValue
33.215

@<SCITEGIC>MOL_PROPERTY
U+W
SciTegic.value.DoubleValue
27.167

@<SCITEGIC>MOL_PROPERTY
U
SciTegic.value.DoubleValue
77.189

@<SCITEGIC>MOL_PROPERTY
W
SciTegic.value.DoubleValue
-50.021

@<SCITEGIC>MOL_PROPERTY
W(PB)
SciTegic.value.DoubleValue
-52.230

@<SCITEGIC>MOL_PROPERTY
W(SA)
SciTegic.value.DoubleValue
2.209

@<SCITEGIC>MOL_PROPERTY
Valence
SciTegic.value.DoubleValue
6.919

@<SCITEGIC>MOL_PROPERTY
Coulomb
SciTegic.value.DoubleValue
70.049

@<SCITEGIC>MOL_PROPERTY
VdW
SciTegic.value.DoubleValue
0.220

@<SCITEGIC>MOL_PROPERTY
VdW6
SciTegic.value.DoubleValue
-8.979

@<SCITEGIC>MOL_PROPERTY
VdW12
SciTegic.value.DoubleValue
9.200

@<SCITEGIC>MOL_PROPERTY
Bond
SciTegic.value.DoubleValue
0.284

@<SCITEGIC>MOL_PROPERTY
Angle
SciTegic.value.DoubleValue
1.855

@<SCITEGIC>MOL_PROPERTY
Pdih
SciTegic.value.DoubleValue
4.781

@<SCITEGIC>MOL_PROPERTY
Idih
SciTegic.value.DoubleValue
0.000

@<SCITEGIC>MOL_PROPERTY
Tether
SciTegic.value.DoubleValue
0.000

@<TRIPOS>MOLECULE
guest-s12_vm2.mol2 : vm2 ligand conformer 191
          26          25           1
SMALL
USER_CHARGES
 
@<TRIPOS>ATOM
       1    N1      19.864354   19.672214   25.488930 N.4        1 MOL1        -0.4857
       2    H1      20.086513   20.464441   24.868325 H          1 MOL1         0.3650
       3    H2      20.035229   20.021563   26.445230 H          1 MOL1         0.3650
       4    C1      20.797799   18.509868   25.197762 C.3        1 MOL1         0.0209
       5    H3      20.498817   17.682043   25.845652 H          1 MOL1         0.0967
       6    H4      21.803776   18.817928   25.493765 H          1 MOL1         0.0967
       7    C2      20.836393   18.024137   23.730116 C.3        1 MOL1        -0.1378
       8    H5      21.476934   17.132915   23.700542 H          1 MOL1         0.0993
       9    H6      19.842077   17.686526   23.417212 H          1 MOL1         0.0993
      10    C3      21.416157   19.068540   22.738183 C.3        1 MOL1        -0.1338
      11    H7      21.907728   18.544291   21.907096 H          1 MOL1         0.0993
      12    H8      22.218028   19.625371   23.242575 H          1 MOL1         0.0993
      13    C4      20.381672   20.071669   22.157970 C.3        1 MOL1        -0.1338
      14    H9      19.577374   20.270137   22.875042 H          1 MOL1         0.0993
      15    H10     20.888246   21.034583   22.004318 H          1 MOL1         0.0993
      16    C5      19.768483   19.645437   20.799688 C.3        1 MOL1        -0.1313
      17    H11     20.566795   19.534209   20.052612 H          1 MOL1         0.0993
      18    H12     19.124105   20.458276   20.436492 H          1 MOL1         0.0993
      19    C6      18.937430   18.344884   20.860921 C.3        1 MOL1        -0.2328
      20    H13     19.570205   17.476622   21.082580 H          1 MOL1         0.1004
      21    H14     18.448237   18.156640   19.896499 H          1 MOL1         0.1004
      22    H15     18.153908   18.411120   21.626680 H          1 MOL1         0.1004
      23    C7      18.405711   19.253252   25.343431 C.3        1 MOL1        -0.0781
      24    H16     17.763758   20.104181   25.581852 H          1 MOL1         0.0978
      25    H17     18.223098   18.930870   24.316382 H          1 MOL1         0.0978
      26    H18     18.198872   18.431110   26.031966 H          1 MOL1         0.0978
@<TRIPOS>BOND
    1     1     2    1
    2     1     3    1
    3     1     4    1
    4     4     5    1
    5     4     6    1
    6     4     7    1
    7     7     8    1
    8     7     9    1
    9     7    10    1
   10    10    11    1
   11    10    12    1
   12    10    13    1
   13    13    14    1
   14    13    15    1
   15    13    16    1
   16    16    17    1
   17    16    18    1
   18    16    19    1
   19    19    20    1
   20    19    21    1
   21    19    22    1
   22     1    23    1
   23    23    24    1
   24    23    25    1
   25    23    26    1
@<TRIPOS>SUBSTRUCTURE
       1 MOL1            1 RESIDUE      1      MOL     
@<SCITEGIC>MOL_PROPERTY
VM2 Rank
SciTegic.value.IntegerValue
191

@<SCITEGIC>MOL_PROPERTY
Conf_Id
SciTegic.value.IntegerValue
1372

@<SCITEGIC>MOL_PROPERTY
Probability
SciTegic.value.DoubleValue
0.00

@<SCITEGIC>MOL_PROPERTY
Sum Probability
SciTegic.value.DoubleValue
100.00

@<SCITEGIC>MOL_PROPERTY
Delta G
SciTegic.value.DoubleValue
6.413

@<SCITEGIC>MOL_PROPERTY
G
SciTegic.value.DoubleValue
81.879

@<SCITEGIC>MOL_PROPERTY
E
SciTegic.value.DoubleValue
48.644

@<SCITEGIC>MOL_PROPERTY
-TS
SciTegic.value.DoubleValue
33.235

@<SCITEGIC>MOL_PROPERTY
U+W
SciTegic.value.DoubleValue
27.182

@<SCITEGIC>MOL_PROPERTY
U
SciTegic.value.DoubleValue
77.340

@<SCITEGIC>MOL_PROPERTY
W
SciTegic.value.DoubleValue
-50.158

@<SCITEGIC>MOL_PROPERTY
W(PB)
SciTegic.value.DoubleValue
-52.285

@<SCITEGIC>MOL_PROPERTY
W(SA)
SciTegic.value.DoubleValue
2.128

@<SCITEGIC>MOL_PROPERTY
Valence
SciTegic.value.DoubleValue
6.847

@<SCITEGIC>MOL_PROPERTY
Coulomb
SciTegic.value.DoubleValue
70.349

@<SCITEGIC>MOL_PROPERTY
VdW
SciTegic.value.DoubleValue
0.144

@<SCITEGIC>MOL_PROPERTY
VdW6
SciTegic.value.DoubleValue
-9.591

@<SCITEGIC>MOL_PROPERTY
VdW12
SciTegic.value.DoubleValue
9.735

@<SCITEGIC>MOL_PROPERTY
Bond
SciTegic.value.DoubleValue
0.315

@<SCITEGIC>MOL_PROPERTY
Angle
SciTegic.value.DoubleValue
1.724

@<SCITEGIC>MOL_PROPERTY
Pdih
SciTegic.value.DoubleValue
4.807

@<SCITEGIC>MOL_PROPERTY
Idih
SciTegic.value.DoubleValue
0.000

@<SCITEGIC>MOL_PROPERTY
Tether
SciTegic.value.DoubleValue
0.000

@<TRIPOS>MOLECULE
guest-s12_vm2.mol2 : vm2 ligand conformer 192
          26          25           1
SMALL
USER_CHARGES
 
@<TRIPOS>ATOM
       1    N1      20.626997   18.995298   25.291778 N.4        1 MOL1        -0.4857
       2    H1      20.966012   19.833625   24.796448 H          1 MOL1         0.3650
       3    H2      21.195070   18.210382   24.937650 H          1 MOL1         0.3650
       4    C1      19.164204   18.766232   24.969981 C.3        1 MOL1         0.0209
       5    H3      18.599655   19.616572   25.360588 H          1 MOL1         0.0967
       6    H4      18.846209   17.871702   25.511522 H          1 MOL1         0.0967
       7    C2      18.852917   18.588554   23.468388 C.3        1 MOL1        -0.1378
       8    H5      19.390397   17.716586   23.077183 H          1 MOL1         0.0993
       9    H6      17.784777   18.349477   23.381254 H          1 MOL1         0.0993
      10    C3      19.140997   19.854173   22.616741 C.3        1 MOL1        -0.1338
      11    H7      18.922487   20.745140   23.221806 H          1 MOL1         0.0993
      12    H8      18.433073   19.895220   21.777432 H          1 MOL1         0.0993
      13    C4      20.588345   19.951042   22.060821 C.3        1 MOL1        -0.1338
      14    H9      20.879584   21.010496   22.044278 H          1 MOL1         0.0993
      15    H10     21.302612   19.455176   22.728484 H          1 MOL1         0.0993
      16    C5      20.756881   19.397032   20.623048 C.3        1 MOL1        -0.1313
      17    H11     21.786877   19.589666   20.291584 H          1 MOL1         0.0993
      18    H12     20.106983   19.954489   19.934057 H          1 MOL1         0.0993
      19    C6      20.468207   17.885198   20.491437 C.3        1 MOL1        -0.2328
      20    H13     21.083705   17.302390   21.188707 H          1 MOL1         0.1004
      21    H14     20.694529   17.538504   19.474850 H          1 MOL1         0.1004
      22    H15     19.412299   17.661136   20.687395 H          1 MOL1         0.1004
      23    C7      20.809450   19.152469   26.794806 C.3        1 MOL1        -0.0781
      24    H16     20.222700   20.006396   27.140432 H          1 MOL1         0.0978
      25    H17     20.469106   18.242994   27.294742 H          1 MOL1         0.0978
      26    H18     21.866866   19.319146   27.012037 H          1 MOL1         0.0978
@<TRIPOS>BOND
    1     1     2    1
    2     1     3    1
    3     1     4    1
    4     4     5    1
    5     4     6    1
    6     4     7    1
    7     7     8    1
    8     7     9    1
    9     7    10    1
   10    10    11    1
   11    10    12    1
   12    10    13    1
   13    13    14    1
   14    13    15    1
   15    13    16    1
   16    16    17    1
   17    16    18    1
   18    16    19    1
   19    19    20    1
   20    19    21    1
   21    19    22    1
   22     1    23    1
   23    23    24    1
   24    23    25    1
   25    23    26    1
@<TRIPOS>SUBSTRUCTURE
       1 MOL1            1 RESIDUE      1      MOL     
@<SCITEGIC>MOL_PROPERTY
VM2 Rank
SciTegic.value.IntegerValue
192

@<SCITEGIC>MOL_PROPERTY
Conf_Id
SciTegic.value.IntegerValue
542

@<SCITEGIC>MOL_PROPERTY
Probability
SciTegic.value.DoubleValue
0.00

@<SCITEGIC>MOL_PROPERTY
Sum Probability
SciTegic.value.DoubleValue
100.00

@<SCITEGIC>MOL_PROPERTY
Delta G
SciTegic.value.DoubleValue
6.507

@<SCITEGIC>MOL_PROPERTY
G
SciTegic.value.DoubleValue
81.973

@<SCITEGIC>MOL_PROPERTY
E
SciTegic.value.DoubleValue
49.206

@<SCITEGIC>MOL_PROPERTY
-TS
SciTegic.value.DoubleValue
32.767

@<SCITEGIC>MOL_PROPERTY
U+W
SciTegic.value.DoubleValue
27.744

@<SCITEGIC>MOL_PROPERTY
U
SciTegic.value.DoubleValue
77.265

@<SCITEGIC>MOL_PROPERTY
W
SciTegic.value.DoubleValue
-49.522

@<SCITEGIC>MOL_PROPERTY
W(PB)
SciTegic.value.DoubleValue
-51.736

@<SCITEGIC>MOL_PROPERTY
W(SA)
SciTegic.value.DoubleValue
2.214

@<SCITEGIC>MOL_PROPERTY
Valence
SciTegic.value.DoubleValue
6.549

@<SCITEGIC>MOL_PROPERTY
Coulomb
SciTegic.value.DoubleValue
70.466

@<SCITEGIC>MOL_PROPERTY
VdW
SciTegic.value.DoubleValue
0.250

@<SCITEGIC>MOL_PROPERTY
VdW6
SciTegic.value.DoubleValue
-8.286

@<SCITEGIC>MOL_PROPERTY
VdW12
SciTegic.value.DoubleValue
8.536

@<SCITEGIC>MOL_PROPERTY
Bond
SciTegic.value.DoubleValue
0.272

@<SCITEGIC>MOL_PROPERTY
Angle
SciTegic.value.DoubleValue
1.406

@<SCITEGIC>MOL_PROPERTY
Pdih
SciTegic.value.DoubleValue
4.871

@<SCITEGIC>MOL_PROPERTY
Idih
SciTegic.value.DoubleValue
0.000

@<SCITEGIC>MOL_PROPERTY
Tether
SciTegic.value.DoubleValue
0.000

@<TRIPOS>MOLECULE
guest-s12_vm2.mol2 : vm2 ligand conformer 193
          26          25           1
SMALL
USER_CHARGES
 
@<TRIPOS>ATOM
       1    N1      20.747999   18.877666   24.849831 N.4        1 MOL1        -0.4857
       2    H1      21.079609   18.795748   23.876868 H          1 MOL1         0.3650
       3    H2      20.841605   17.934906   25.259018 H          1 MOL1         0.3650
       4    C1      19.293720   19.307993   24.859208 C.3        1 MOL1         0.0209
       5    H3      19.229491   20.326398   24.468252 H          1 MOL1         0.0967
       6    H4      18.973753   19.324247   25.904162 H          1 MOL1         0.0967
       7    C2      18.356956   18.380279   24.058239 C.3        1 MOL1        -0.1378
       8    H5      18.602993   17.331349   24.270524 H          1 MOL1         0.0993
       9    H6      17.336647   18.529458   24.435779 H          1 MOL1         0.0993
      10    C3      18.335958   18.625231   22.525193 C.3        1 MOL1        -0.1338
      11    H7      17.956858   19.634342   22.311821 H          1 MOL1         0.0993
      12    H8      17.596409   17.936962   22.092821 H          1 MOL1         0.0993
      13    C4      19.686187   18.397803   21.797905 C.3        1 MOL1        -0.1338
      14    H9      20.279170   17.639994   22.326805 H          1 MOL1         0.0993
      15    H10     19.480377   17.970749   20.806380 H          1 MOL1         0.0993
      16    C5      20.496670   19.701474   21.593259 C.3        1 MOL1        -0.1313
      17    H11     20.597554   20.258199   22.532505 H          1 MOL1         0.0993
      18    H12     19.949108   20.363723   20.907839 H          1 MOL1         0.0993
      19    C6      21.898021   19.417584   21.012227 C.3        1 MOL1        -0.2328
      20    H13     21.826549   18.905994   20.043449 H          1 MOL1         0.1004
      21    H14     22.489686   18.786580   21.687900 H          1 MOL1         0.1004
      22    H15     22.449998   20.353796   20.857291 H          1 MOL1         0.1004
      23    C7      21.592489   19.881969   25.621138 C.3        1 MOL1        -0.0781
      24    H16     21.500504   20.864145   25.152371 H          1 MOL1         0.0978
      25    H17     21.238754   19.930131   26.653352 H          1 MOL1         0.0978
      26    H18     22.636392   19.560932   25.603728 H          1 MOL1         0.0978
@<TRIPOS>BOND
    1     1     2    1
    2     1     3    1
    3     1     4    1
    4     4     5    1
    5     4     6    1
    6     4     7    1
    7     7     8    1
    8     7     9    1
    9     7    10    1
   10    10    11    1
   11    10    12    1
   12    10    13    1
   13    13    14    1
   14    13    15    1
   15    13    16    1
   16    16    17    1
   17    16    18    1
   18    16    19    1
   19    19    20    1
   20    19    21    1
   21    19    22    1
   22     1    23    1
   23    23    24    1
   24    23    25    1
   25    23    26    1
@<TRIPOS>SUBSTRUCTURE
       1 MOL1            1 RESIDUE      1      MOL     
@<SCITEGIC>MOL_PROPERTY
VM2 Rank
SciTegic.value.IntegerValue
193

@<SCITEGIC>MOL_PROPERTY
Conf_Id
SciTegic.value.IntegerValue
416

@<SCITEGIC>MOL_PROPERTY
Probability
SciTegic.value.DoubleValue
0.00

@<SCITEGIC>MOL_PROPERTY
Sum Probability
SciTegic.value.DoubleValue
100.00

@<SCITEGIC>MOL_PROPERTY
Delta G
SciTegic.value.DoubleValue
7.039

@<SCITEGIC>MOL_PROPERTY
G
SciTegic.value.DoubleValue
82.505

@<SCITEGIC>MOL_PROPERTY
E
SciTegic.value.DoubleValue
49.519

@<SCITEGIC>MOL_PROPERTY
-TS
SciTegic.value.DoubleValue
32.986

@<SCITEGIC>MOL_PROPERTY
U+W
SciTegic.value.DoubleValue
28.058

@<SCITEGIC>MOL_PROPERTY
U
SciTegic.value.DoubleValue
76.548

@<SCITEGIC>MOL_PROPERTY
W
SciTegic.value.DoubleValue
-48.491

@<SCITEGIC>MOL_PROPERTY
W(PB)
SciTegic.value.DoubleValue
-50.669

@<SCITEGIC>MOL_PROPERTY
W(SA)
SciTegic.value.DoubleValue
2.178

@<SCITEGIC>MOL_PROPERTY
Valence
SciTegic.value.DoubleValue
5.809

@<SCITEGIC>MOL_PROPERTY
Coulomb
SciTegic.value.DoubleValue
71.051

@<SCITEGIC>MOL_PROPERTY
VdW
SciTegic.value.DoubleValue
-0.311

@<SCITEGIC>MOL_PROPERTY
VdW6
SciTegic.value.DoubleValue
-8.912

@<SCITEGIC>MOL_PROPERTY
VdW12
SciTegic.value.DoubleValue
8.601

@<SCITEGIC>MOL_PROPERTY
Bond
SciTegic.value.DoubleValue
0.232

@<SCITEGIC>MOL_PROPERTY
Angle
SciTegic.value.DoubleValue
1.493

@<SCITEGIC>MOL_PROPERTY
Pdih
SciTegic.value.DoubleValue
4.083

@<SCITEGIC>MOL_PROPERTY
Idih
SciTegic.value.DoubleValue
0.000

@<SCITEGIC>MOL_PROPERTY
Tether
SciTegic.value.DoubleValue
0.000

@<TRIPOS>MOLECULE
guest-s12_vm2.mol2 : vm2 ligand conformer 194
          26          25           1
SMALL
USER_CHARGES
 
@<TRIPOS>ATOM
       1    N1      19.300564   18.729550   24.798387 N.4        1 MOL1        -0.4857
       2    H1      19.371156   17.784379   25.206626 H          1 MOL1         0.3650
       3    H2      19.061389   18.589366   23.805170 H          1 MOL1         0.3650
       4    C1      20.633431   19.445055   24.906651 C.3        1 MOL1         0.0209
       5    H3      20.869464   19.518084   25.971323 H          1 MOL1         0.0967
       6    H4      20.517570   20.458218   24.513974 H          1 MOL1         0.0967
       7    C2      21.792269   18.731855   24.179891 C.3        1 MOL1        -0.1378
       8    H5      22.732295   19.081632   24.626912 H          1 MOL1         0.0993
       9    H6      21.749281   17.653333   24.381869 H          1 MOL1         0.0993
      10    C3      21.870595   18.987064   22.650379 C.3        1 MOL1        -0.1338
      11    H7      22.762551   18.465832   22.275781 H          1 MOL1         0.0993
      12    H8      22.051631   20.053529   22.456913 H          1 MOL1         0.0993
      13    C4      20.648642   18.496360   21.831946 C.3        1 MOL1        -0.1338
      14    H9      21.005524   18.126934   20.860343 H          1 MOL1         0.0993
      15    H10     20.185733   17.630447   22.323419 H          1 MOL1         0.0993
      16    C5      19.607480   19.610493   21.561747 C.3        1 MOL1        -0.1313
      17    H11     20.056216   20.374588   20.911367 H          1 MOL1         0.0993
      18    H12     19.330765   20.128740   22.487574 H          1 MOL1         0.0993
      19    C6      18.336570   19.053012   20.886485 C.3        1 MOL1        -0.2328
      20    H13     18.577482   18.573241   19.928809 H          1 MOL1         0.1004
      21    H14     17.618781   19.859242   20.686609 H          1 MOL1         0.1004
      22    H15     17.839130   18.310646   21.523836 H          1 MOL1         0.1004
      23    C7      18.218449   19.536610   25.501514 C.3        1 MOL1        -0.0781
      24    H16     18.481913   19.647788   26.555621 H          1 MOL1         0.0978
      25    H17     18.142462   20.520486   25.033449 H          1 MOL1         0.0978
      26    H18     17.264910   19.011185   25.413233 H          1 MOL1         0.0978
@<TRIPOS>BOND
    1     1     2    1
    2     1     3    1
    3     1     4    1
    4     4     5    1
    5     4     6    1
    6     4     7    1
    7     7     8    1
    8     7     9    1
    9     7    10    1
   10    10    11    1
   11    10    12    1
   12    10    13    1
   13    13    14    1
   14    13    15    1
   15    13    16    1
   16    16    17    1
   17    16    18    1
   18    16    19    1
   19    19    20    1
   20    19    21    1
   21    19    22    1
   22     1    23    1
   23    23    24    1
   24    23    25    1
   25    23    26    1
@<TRIPOS>SUBSTRUCTURE
       1 MOL1            1 RESIDUE      1      MOL     
@<SCITEGIC>MOL_PROPERTY
VM2 Rank
SciTegic.value.IntegerValue
194

@<SCITEGIC>MOL_PROPERTY
Conf_Id
SciTegic.value.IntegerValue
237

@<SCITEGIC>MOL_PROPERTY
Probability
SciTegic.value.DoubleValue
0.00

@<SCITEGIC>MOL_PROPERTY
Sum Probability
SciTegic.value.DoubleValue
100.00

@<SCITEGIC>MOL_PROPERTY
Delta G
SciTegic.value.DoubleValue
7.049

@<SCITEGIC>MOL_PROPERTY
G
SciTegic.value.DoubleValue
82.515

@<SCITEGIC>MOL_PROPERTY
E
SciTegic.value.DoubleValue
49.529

@<SCITEGIC>MOL_PROPERTY
-TS
SciTegic.value.DoubleValue
32.986

@<SCITEGIC>MOL_PROPERTY
U+W
SciTegic.value.DoubleValue
28.067

@<SCITEGIC>MOL_PROPERTY
U
SciTegic.value.DoubleValue
76.549

@<SCITEGIC>MOL_PROPERTY
W
SciTegic.value.DoubleValue
-48.481

@<SCITEGIC>MOL_PROPERTY
W(PB)
SciTegic.value.DoubleValue
-50.645

@<SCITEGIC>MOL_PROPERTY
W(SA)
SciTegic.value.DoubleValue
2.163

@<SCITEGIC>MOL_PROPERTY
Valence
SciTegic.value.DoubleValue
5.809

@<SCITEGIC>MOL_PROPERTY
Coulomb
SciTegic.value.DoubleValue
71.051

@<SCITEGIC>MOL_PROPERTY
VdW
SciTegic.value.DoubleValue
-0.311

@<SCITEGIC>MOL_PROPERTY
VdW6
SciTegic.value.DoubleValue
-8.913

@<SCITEGIC>MOL_PROPERTY
VdW12
SciTegic.value.DoubleValue
8.602

@<SCITEGIC>MOL_PROPERTY
Bond
SciTegic.value.DoubleValue
0.232

@<SCITEGIC>MOL_PROPERTY
Angle
SciTegic.value.DoubleValue
1.493

@<SCITEGIC>MOL_PROPERTY
Pdih
SciTegic.value.DoubleValue
4.084

@<SCITEGIC>MOL_PROPERTY
Idih
SciTegic.value.DoubleValue
0.000

@<SCITEGIC>MOL_PROPERTY
Tether
SciTegic.value.DoubleValue
0.000

@<TRIPOS>MOLECULE
guest-s12_vm2.mol2 : vm2 ligand conformer 195
          26          25           1
SMALL
USER_CHARGES
 
@<TRIPOS>ATOM
       1    N1      19.333928   19.184604   25.073962 N.4        1 MOL1        -0.4857
       2    H1      19.014486   18.369519   25.620367 H          1 MOL1         0.3650
       3    H2      18.820318   19.140785   24.181563 H          1 MOL1         0.3650
       4    C1      20.824555   19.085314   24.813819 C.3        1 MOL1         0.0209
       5    H3      21.316906   19.071868   25.789511 H          1 MOL1         0.0967
       6    H4      21.146528   19.984454   24.282708 H          1 MOL1         0.0967
       7    C2      21.242322   17.831018   24.019562 C.3        1 MOL1        -0.1378
       8    H5      22.297804   17.629441   24.245707 H          1 MOL1         0.0993
       9    H6      20.687059   16.956429   24.383714 H          1 MOL1         0.0993
      10    C3      21.103380   17.952380   22.478400 C.3        1 MOL1        -0.1338
      11    H7      21.487897   17.020794   22.040567 H          1 MOL1         0.0993
      12    H8      21.768915   18.743231   22.109800 H          1 MOL1         0.0993
      13    C4      19.657186   18.164881   21.955024 C.3        1 MOL1        -0.1338
      14    H9      19.541892   17.620327   21.007481 H          1 MOL1         0.0993
      15    H10     18.941418   17.695373   22.642642 H          1 MOL1         0.0993
      16    C5      19.272219   19.647286   21.708354 C.3        1 MOL1        -0.1313
      17    H11     19.515449   20.267368   22.579568 H          1 MOL1         0.0993
      18    H12     18.183153   19.712472   21.575245 H          1 MOL1         0.0993
      19    C6      19.954161   20.245752   20.456579 C.3        1 MOL1        -0.2328
      20    H13     19.610846   21.274488   20.286891 H          1 MOL1         0.1004
      21    H14     19.714092   19.661644   19.558696 H          1 MOL1         0.1004
      22    H15     21.045362   20.274998   20.562670 H          1 MOL1         0.1004
      23    C7      19.020249   20.478763   25.811300 C.3        1 MOL1        -0.0781
      24    H16     19.553373   20.486644   26.764525 H          1 MOL1         0.0978
      25    H17     19.340173   21.326555   25.201567 H          1 MOL1         0.0978
      26    H18     17.944315   20.537756   25.990163 H          1 MOL1         0.0978
@<TRIPOS>BOND
    1     1     2    1
    2     1     3    1
    3     1     4    1
    4     4     5    1
    5     4     6    1
    6     4     7    1
    7     7     8    1
    8     7     9    1
    9     7    10    1
   10    10    11    1
   11    10    12    1
   12    10    13    1
   13    13    14    1
   14    13    15    1
   15    13    16    1
   16    16    17    1
   17    16    18    1
   18    16    19    1
   19    19    20    1
   20    19    21    1
   21    19    22    1
   22     1    23    1
   23    23    24    1
   24    23    25    1
   25    23    26    1
@<TRIPOS>SUBSTRUCTURE
       1 MOL1            1 RESIDUE      1      MOL     
@<SCITEGIC>MOL_PROPERTY
VM2 Rank
SciTegic.value.IntegerValue
195

@<SCITEGIC>MOL_PROPERTY
Conf_Id
SciTegic.value.IntegerValue
833

@<SCITEGIC>MOL_PROPERTY
Probability
SciTegic.value.DoubleValue
0.00

@<SCITEGIC>MOL_PROPERTY
Sum Probability
SciTegic.value.DoubleValue
100.00

@<SCITEGIC>MOL_PROPERTY
Delta G
SciTegic.value.DoubleValue
7.131

@<SCITEGIC>MOL_PROPERTY
G
SciTegic.value.DoubleValue
82.597

@<SCITEGIC>MOL_PROPERTY
E
SciTegic.value.DoubleValue
49.617

@<SCITEGIC>MOL_PROPERTY
-TS
SciTegic.value.DoubleValue
32.980

@<SCITEGIC>MOL_PROPERTY
U+W
SciTegic.value.DoubleValue
28.155

@<SCITEGIC>MOL_PROPERTY
U
SciTegic.value.DoubleValue
77.517

@<SCITEGIC>MOL_PROPERTY
W
SciTegic.value.DoubleValue
-49.362

@<SCITEGIC>MOL_PROPERTY
W(PB)
SciTegic.value.DoubleValue
-51.556

@<SCITEGIC>MOL_PROPERTY
W(SA)
SciTegic.value.DoubleValue
2.194

@<SCITEGIC>MOL_PROPERTY
Valence
SciTegic.value.DoubleValue
6.532

@<SCITEGIC>MOL_PROPERTY
Coulomb
SciTegic.value.DoubleValue
71.087

@<SCITEGIC>MOL_PROPERTY
VdW
SciTegic.value.DoubleValue
-0.102

@<SCITEGIC>MOL_PROPERTY
VdW6
SciTegic.value.DoubleValue
-9.038

@<SCITEGIC>MOL_PROPERTY
VdW12
SciTegic.value.DoubleValue
8.936

@<SCITEGIC>MOL_PROPERTY
Bond
SciTegic.value.DoubleValue
0.274

@<SCITEGIC>MOL_PROPERTY
Angle
SciTegic.value.DoubleValue
1.677

@<SCITEGIC>MOL_PROPERTY
Pdih
SciTegic.value.DoubleValue
4.581

@<SCITEGIC>MOL_PROPERTY
Idih
SciTegic.value.DoubleValue
0.000

@<SCITEGIC>MOL_PROPERTY
Tether
SciTegic.value.DoubleValue
0.000

@<TRIPOS>MOLECULE
guest-s12_vm2.mol2 : vm2 ligand conformer 196
          26          25           1
SMALL
USER_CHARGES
 
@<TRIPOS>ATOM
       1    N1      20.603921   19.315156   25.118919 N.4        1 MOL1        -0.4857
       2    H1      21.176855   19.383050   24.264969 H          1 MOL1         0.3650
       3    H2      21.043302   18.578070   25.692170 H          1 MOL1         0.3650
       4    C1      19.186497   18.916914   24.755861 C.3        1 MOL1         0.0209
       5    H3      18.726472   19.735678   24.197111 H          1 MOL1         0.0967
       6    H4      18.640140   18.796644   25.694794 H          1 MOL1         0.0967
       7    C2      19.088932   17.609669   23.943320 C.3        1 MOL1        -0.1378
       8    H5      19.783475   16.863553   24.351670 H          1 MOL1         0.0993
       9    H6      18.083258   17.196190   24.096513 H          1 MOL1         0.0993
      10    C3      19.307765   17.767866   22.414826 C.3        1 MOL1        -0.1338
      11    H7      18.522915   18.409701   21.994937 H          1 MOL1         0.0993
      12    H8      19.152065   16.780788   21.957837 H          1 MOL1         0.0993
      13    C4      20.713642   18.273446   21.992394 C.3        1 MOL1        -0.1338
      14    H9      21.459959   17.954172   22.731755 H          1 MOL1         0.0993
      15    H10     21.003136   17.770495   21.059171 H          1 MOL1         0.0993
      16    C5      20.805781   19.804878   21.762626 C.3        1 MOL1        -0.1313
      17    H11     21.865492   20.090860   21.705540 H          1 MOL1         0.0993
      18    H12     20.381360   20.356343   22.610228 H          1 MOL1         0.0993
      19    C6      20.105742   20.261362   20.461968 C.3        1 MOL1        -0.2328
      20    H13     20.244001   21.339571   20.309311 H          1 MOL1         0.1004
      21    H14     19.026648   20.067641   20.491296 H          1 MOL1         0.1004
      22    H15     20.521600   19.744641   19.587285 H          1 MOL1         0.1004
      23    C7      20.595721   20.640708   25.867085 C.3        1 MOL1        -0.0781
      24    H16     20.153614   21.410167   25.230414 H          1 MOL1         0.0978
      25    H17     20.006811   20.533215   26.780623 H          1 MOL1         0.0978
      26    H18     21.622022   20.915831   26.120308 H          1 MOL1         0.0978
@<TRIPOS>BOND
    1     1     2    1
    2     1     3    1
    3     1     4    1
    4     4     5    1
    5     4     6    1
    6     4     7    1
    7     7     8    1
    8     7     9    1
    9     7    10    1
   10    10    11    1
   11    10    12    1
   12    10    13    1
   13    13    14    1
   14    13    15    1
   15    13    16    1
   16    16    17    1
   17    16    18    1
   18    16    19    1
   19    19    20    1
   20    19    21    1
   21    19    22    1
   22     1    23    1
   23    23    24    1
   24    23    25    1
   25    23    26    1
@<TRIPOS>SUBSTRUCTURE
       1 MOL1            1 RESIDUE      1      MOL     
@<SCITEGIC>MOL_PROPERTY
VM2 Rank
SciTegic.value.IntegerValue
196

@<SCITEGIC>MOL_PROPERTY
Conf_Id
SciTegic.value.IntegerValue
260

@<SCITEGIC>MOL_PROPERTY
Probability
SciTegic.value.DoubleValue
0.00

@<SCITEGIC>MOL_PROPERTY
Sum Probability
SciTegic.value.DoubleValue
100.00

@<SCITEGIC>MOL_PROPERTY
Delta G
SciTegic.value.DoubleValue
7.244

@<SCITEGIC>MOL_PROPERTY
G
SciTegic.value.DoubleValue
82.710

@<SCITEGIC>MOL_PROPERTY
E
SciTegic.value.DoubleValue
49.730

@<SCITEGIC>MOL_PROPERTY
-TS
SciTegic.value.DoubleValue
32.980

@<SCITEGIC>MOL_PROPERTY
U+W
SciTegic.value.DoubleValue
28.269

@<SCITEGIC>MOL_PROPERTY
U
SciTegic.value.DoubleValue
77.517

@<SCITEGIC>MOL_PROPERTY
W
SciTegic.value.DoubleValue
-49.248

@<SCITEGIC>MOL_PROPERTY
W(PB)
SciTegic.value.DoubleValue
-51.417

@<SCITEGIC>MOL_PROPERTY
W(SA)
SciTegic.value.DoubleValue
2.168

@<SCITEGIC>MOL_PROPERTY
Valence
SciTegic.value.DoubleValue
6.532

@<SCITEGIC>MOL_PROPERTY
Coulomb
SciTegic.value.DoubleValue
71.087

@<SCITEGIC>MOL_PROPERTY
VdW
SciTegic.value.DoubleValue
-0.102

@<SCITEGIC>MOL_PROPERTY
VdW6
SciTegic.value.DoubleValue
-9.038

@<SCITEGIC>MOL_PROPERTY
VdW12
SciTegic.value.DoubleValue
8.936

@<SCITEGIC>MOL_PROPERTY
Bond
SciTegic.value.DoubleValue
0.274

@<SCITEGIC>MOL_PROPERTY
Angle
SciTegic.value.DoubleValue
1.677

@<SCITEGIC>MOL_PROPERTY
Pdih
SciTegic.value.DoubleValue
4.581

@<SCITEGIC>MOL_PROPERTY
Idih
SciTegic.value.DoubleValue
0.000

@<SCITEGIC>MOL_PROPERTY
Tether
SciTegic.value.DoubleValue
0.000

@<TRIPOS>MOLECULE
guest-s12_vm2.mol2 : vm2 ligand conformer 197
          26          25           1
SMALL
USER_CHARGES
 
@<TRIPOS>ATOM
       1    N1      19.054453   18.661133   24.657214 N.4        1 MOL1        -0.4857
       2    H1      19.184962   18.294059   23.702600 H          1 MOL1         0.3650
       3    H2      18.032742   18.710591   24.797810 H          1 MOL1         0.3650
       4    C1      19.649698   20.057134   24.756251 C.3        1 MOL1         0.0209
       5    H3      19.558963   20.367823   25.800141 H          1 MOL1         0.0967
       6    H4      19.034273   20.729201   24.152962 H          1 MOL1         0.0967
       7    C2      21.125066   20.188293   24.313059 C.3        1 MOL1        -0.1378
       8    H5      21.514849   21.124121   24.734811 H          1 MOL1         0.0993
       9    H6      21.729129   19.389803   24.761885 H          1 MOL1         0.0993
      10    C3      21.355131   20.230143   22.778446 C.3        1 MOL1        -0.1338
      11    H7      22.429326   20.390498   22.611299 H          1 MOL1         0.0993
      12    H8      20.857177   21.110031   22.347915 H          1 MOL1         0.0993
      13    C4      20.936090   18.948708   22.013322 C.3        1 MOL1        -0.1338
      14    H9      21.669354   18.760901   21.216545 H          1 MOL1         0.0993
      15    H10     20.992687   18.075318   22.676661 H          1 MOL1         0.0993
      16    C5      19.538848   19.063674   21.356187 C.3        1 MOL1        -0.1313
      17    H11     19.575013   19.821357   20.560643 H          1 MOL1         0.0993
      18    H12     18.791201   19.419098   22.075416 H          1 MOL1         0.0993
      19    C6      19.077772   17.718970   20.755127 C.3        1 MOL1        -0.2328
      20    H13     19.783255   17.366874   19.991119 H          1 MOL1         0.1004
      21    H14     18.093745   17.824028   20.279886 H          1 MOL1         0.1004
      22    H15     18.997238   16.943053   21.527318 H          1 MOL1         0.1004
      23    C7      19.670941   17.721945   25.687394 C.3        1 MOL1        -0.0781
      24    H16     20.741179   17.624643   25.495527 H          1 MOL1         0.0978
      25    H17     19.509300   18.131058   26.687034 H          1 MOL1         0.0978
      26    H18     19.193680   16.742621   25.608761 H          1 MOL1         0.0978
@<TRIPOS>BOND
    1     1     2    1
    2     1     3    1
    3     1     4    1
    4     4     5    1
    5     4     6    1
    6     4     7    1
    7     7     8    1
    8     7     9    1
    9     7    10    1
   10    10    11    1
   11    10    12    1
   12    10    13    1
   13    13    14    1
   14    13    15    1
   15    13    16    1
   16    16    17    1
   17    16    18    1
   18    16    19    1
   19    19    20    1
   20    19    21    1
   21    19    22    1
   22     1    23    1
   23    23    24    1
   24    23    25    1
   25    23    26    1
@<TRIPOS>SUBSTRUCTURE
       1 MOL1            1 RESIDUE      1      MOL     
@<SCITEGIC>MOL_PROPERTY
VM2 Rank
SciTegic.value.IntegerValue
197

@<SCITEGIC>MOL_PROPERTY
Conf_Id
SciTegic.value.IntegerValue
966

@<SCITEGIC>MOL_PROPERTY
Probability
SciTegic.value.DoubleValue
0.00

@<SCITEGIC>MOL_PROPERTY
Sum Probability
SciTegic.value.DoubleValue
100.00

@<SCITEGIC>MOL_PROPERTY
Delta G
SciTegic.value.DoubleValue
7.513

@<SCITEGIC>MOL_PROPERTY
G
SciTegic.value.DoubleValue
82.979

@<SCITEGIC>MOL_PROPERTY
E
SciTegic.value.DoubleValue
49.845

@<SCITEGIC>MOL_PROPERTY
-TS
SciTegic.value.DoubleValue
33.133

@<SCITEGIC>MOL_PROPERTY
U+W
SciTegic.value.DoubleValue
28.384

@<SCITEGIC>MOL_PROPERTY
U
SciTegic.value.DoubleValue
77.224

@<SCITEGIC>MOL_PROPERTY
W
SciTegic.value.DoubleValue
-48.841

@<SCITEGIC>MOL_PROPERTY
W(PB)
SciTegic.value.DoubleValue
-51.015

@<SCITEGIC>MOL_PROPERTY
W(SA)
SciTegic.value.DoubleValue
2.174

@<SCITEGIC>MOL_PROPERTY
Valence
SciTegic.value.DoubleValue
6.170

@<SCITEGIC>MOL_PROPERTY
Coulomb
SciTegic.value.DoubleValue
71.062

@<SCITEGIC>MOL_PROPERTY
VdW
SciTegic.value.DoubleValue
-0.008

@<SCITEGIC>MOL_PROPERTY
VdW6
SciTegic.value.DoubleValue
-9.541

@<SCITEGIC>MOL_PROPERTY
VdW12
SciTegic.value.DoubleValue
9.533

@<SCITEGIC>MOL_PROPERTY
Bond
SciTegic.value.DoubleValue
0.273

@<SCITEGIC>MOL_PROPERTY
Angle
SciTegic.value.DoubleValue
1.632

@<SCITEGIC>MOL_PROPERTY
Pdih
SciTegic.value.DoubleValue
4.266

@<SCITEGIC>MOL_PROPERTY
Idih
SciTegic.value.DoubleValue
0.000

@<SCITEGIC>MOL_PROPERTY
Tether
SciTegic.value.DoubleValue
0.000

@<TRIPOS>MOLECULE
guest-s12_vm2.mol2 : vm2 ligand conformer 198
          26          25           1
SMALL
USER_CHARGES
 
@<TRIPOS>ATOM
       1    N1      21.011529   18.858958   24.726652 N.4        1 MOL1        -0.4857
       2    H1      21.990331   19.110695   24.938030 H          1 MOL1         0.3650
       3    H2      21.024194   18.479776   23.767941 H          1 MOL1         0.3650
       4    C1      20.143806   20.107073   24.773647 C.3        1 MOL1         0.0209
       5    H3      20.653194   20.892762   24.210091 H          1 MOL1         0.0967
       6    H4      20.097241   20.422392   25.819051 H          1 MOL1         0.0967
       7    C2      18.706751   19.943714   24.227282 C.3        1 MOL1        -0.1378
       8    H5      18.244614   19.037419   24.638358 H          1 MOL1         0.0993
       9    H6      18.109159   20.779711   24.614029 H          1 MOL1         0.0993
      10    C3      18.581043   19.949550   22.680064 C.3        1 MOL1        -0.1338
      11    H7      18.921851   20.914281   22.279236 H          1 MOL1         0.0993
      12    H8      17.510883   19.892983   22.436949 H          1 MOL1         0.0993
      13    C4      19.300474   18.783279   21.955279 C.3        1 MOL1        -0.1338
      14    H9      19.373274   17.911499   22.619155 H          1 MOL1         0.0993
      15    H10     18.677304   18.458343   21.110365 H          1 MOL1         0.0993
      16    C5      20.689090   19.179996   21.396987 C.3        1 MOL1        -0.1313
      17    H11     21.298288   19.672495   22.164396 H          1 MOL1         0.0993
      18    H12     20.558050   19.920888   20.595620 H          1 MOL1         0.0993
      19    C6      21.450670   17.958991   20.839106 C.3        1 MOL1        -0.2328
      20    H13     20.885158   17.478512   20.029957 H          1 MOL1         0.1004
      21    H14     21.630347   17.209267   21.620416 H          1 MOL1         0.1004
      22    H15     22.424680   18.262074   20.433341 H          1 MOL1         0.1004
      23    C7      20.524637   17.808438   25.717983 C.3        1 MOL1        -0.0781
      24    H16     20.530793   18.234753   26.723468 H          1 MOL1         0.0978
      25    H17     19.511584   17.500431   25.452380 H          1 MOL1         0.0978
      26    H18     21.192367   16.944876   25.680119 H          1 MOL1         0.0978
@<TRIPOS>BOND
    1     1     2    1
    2     1     3    1
    3     1     4    1
    4     4     5    1
    5     4     6    1
    6     4     7    1
    7     7     8    1
    8     7     9    1
    9     7    10    1
   10    10    11    1
   11    10    12    1
   12    10    13    1
   13    13    14    1
   14    13    15    1
   15    13    16    1
   16    16    17    1
   17    16    18    1
   18    16    19    1
   19    19    20    1
   20    19    21    1
   21    19    22    1
   22     1    23    1
   23    23    24    1
   24    23    25    1
   25    23    26    1
@<TRIPOS>SUBSTRUCTURE
       1 MOL1            1 RESIDUE      1      MOL     
@<SCITEGIC>MOL_PROPERTY
VM2 Rank
SciTegic.value.IntegerValue
198

@<SCITEGIC>MOL_PROPERTY
Conf_Id
SciTegic.value.IntegerValue
411

@<SCITEGIC>MOL_PROPERTY
Probability
SciTegic.value.DoubleValue
0.00

@<SCITEGIC>MOL_PROPERTY
Sum Probability
SciTegic.value.DoubleValue
100.00

@<SCITEGIC>MOL_PROPERTY
Delta G
SciTegic.value.DoubleValue
7.536

@<SCITEGIC>MOL_PROPERTY
G
SciTegic.value.DoubleValue
83.002

@<SCITEGIC>MOL_PROPERTY
E
SciTegic.value.DoubleValue
49.869

@<SCITEGIC>MOL_PROPERTY
-TS
SciTegic.value.DoubleValue
33.133

@<SCITEGIC>MOL_PROPERTY
U+W
SciTegic.value.DoubleValue
28.407

@<SCITEGIC>MOL_PROPERTY
U
SciTegic.value.DoubleValue
77.224

@<SCITEGIC>MOL_PROPERTY
W
SciTegic.value.DoubleValue
-48.817

@<SCITEGIC>MOL_PROPERTY
W(PB)
SciTegic.value.DoubleValue
-51.000

@<SCITEGIC>MOL_PROPERTY
W(SA)
SciTegic.value.DoubleValue
2.183

@<SCITEGIC>MOL_PROPERTY
Valence
SciTegic.value.DoubleValue
6.170

@<SCITEGIC>MOL_PROPERTY
Coulomb
SciTegic.value.DoubleValue
71.062

@<SCITEGIC>MOL_PROPERTY
VdW
SciTegic.value.DoubleValue
-0.008

@<SCITEGIC>MOL_PROPERTY
VdW6
SciTegic.value.DoubleValue
-9.540

@<SCITEGIC>MOL_PROPERTY
VdW12
SciTegic.value.DoubleValue
9.533

@<SCITEGIC>MOL_PROPERTY
Bond
SciTegic.value.DoubleValue
0.273

@<SCITEGIC>MOL_PROPERTY
Angle
SciTegic.value.DoubleValue
1.632

@<SCITEGIC>MOL_PROPERTY
Pdih
SciTegic.value.DoubleValue
4.265

@<SCITEGIC>MOL_PROPERTY
Idih
SciTegic.value.DoubleValue
0.000

@<SCITEGIC>MOL_PROPERTY
Tether
SciTegic.value.DoubleValue
0.000

@<TRIPOS>MOLECULE
guest-s12_vm2.mol2 : vm2 ligand conformer 199
          26          25           1
SMALL
USER_CHARGES
 
@<TRIPOS>ATOM
       1    N1      19.419780   18.506965   24.781592 N.4        1 MOL1        -0.4857
       2    H1      19.570761   17.505138   24.588181 H          1 MOL1         0.3650
       3    H2      18.906472   18.873855   23.967459 H          1 MOL1         0.3650
       4    C1      20.752045   19.216233   24.910836 C.3        1 MOL1         0.0209
       5    H3      21.295089   18.726887   25.723353 H          1 MOL1         0.0967
       6    H4      20.562354   20.251180   25.206103 H          1 MOL1         0.0967
       7    C2      21.620936   19.193736   23.635263 C.3        1 MOL1        -0.1378
       8    H5      22.655615   19.390586   23.945807 H          1 MOL1         0.0993
       9    H6      21.639634   18.192674   23.190658 H          1 MOL1         0.0993
      10    C3      21.240840   20.270710   22.585808 C.3        1 MOL1        -0.1338
      11    H7      22.020676   20.294224   21.812154 H          1 MOL1         0.0993
      12    H8      21.285670   21.254440   23.073484 H          1 MOL1         0.0993
      13    C4      19.859524   20.135091   21.888703 C.3        1 MOL1        -0.1338
      14    H9      19.039545   20.144736   22.615913 H          1 MOL1         0.0993
      15    H10     19.717215   21.050649   21.297663 H          1 MOL1         0.0993
      16    C5      19.726367   18.938527   20.909986 C.3        1 MOL1        -0.1313
      17    H11     20.688629   18.741496   20.417201 H          1 MOL1         0.0993
      18    H12     19.034413   19.229724   20.107100 H          1 MOL1         0.0993
      19    C6      19.180366   17.641055   21.548450 C.3        1 MOL1        -0.2328
      20    H13     18.215659   17.815756   22.041518 H          1 MOL1         0.1004
      21    H14     19.876360   17.214648   22.277049 H          1 MOL1         0.1004
      22    H15     19.019058   16.879219   20.774642 H          1 MOL1         0.1004
      23    C7      18.608142   18.687683   26.056362 C.3        1 MOL1        -0.0781
      24    H16     17.651562   18.171478   25.948759 H          1 MOL1         0.0978
      25    H17     19.162448   18.265527   26.897456 H          1 MOL1         0.0978
      26    H18     18.435805   19.753030   26.224416 H          1 MOL1         0.0978
@<TRIPOS>BOND
    1     1     2    1
    2     1     3    1
    3     1     4    1
    4     4     5    1
    5     4     6    1
    6     4     7    1
    7     7     8    1
    8     7     9    1
    9     7    10    1
   10    10    11    1
   11    10    12    1
   12    10    13    1
   13    13    14    1
   14    13    15    1
   15    13    16    1
   16    16    17    1
   17    16    18    1
   18    16    19    1
   19    19    20    1
   20    19    21    1
   21    19    22    1
   22     1    23    1
   23    23    24    1
   24    23    25    1
   25    23    26    1
@<TRIPOS>SUBSTRUCTURE
       1 MOL1            1 RESIDUE      1      MOL     
@<SCITEGIC>MOL_PROPERTY
VM2 Rank
SciTegic.value.IntegerValue
199

@<SCITEGIC>MOL_PROPERTY
Conf_Id
SciTegic.value.IntegerValue
1253

@<SCITEGIC>MOL_PROPERTY
Probability
SciTegic.value.DoubleValue
0.00

@<SCITEGIC>MOL_PROPERTY
Sum Probability
SciTegic.value.DoubleValue
100.00

@<SCITEGIC>MOL_PROPERTY
Delta G
SciTegic.value.DoubleValue
8.548

@<SCITEGIC>MOL_PROPERTY
G
SciTegic.value.DoubleValue
84.014

@<SCITEGIC>MOL_PROPERTY
E
SciTegic.value.DoubleValue
51.001

@<SCITEGIC>MOL_PROPERTY
-TS
SciTegic.value.DoubleValue
33.013

@<SCITEGIC>MOL_PROPERTY
U+W
SciTegic.value.DoubleValue
29.539

@<SCITEGIC>MOL_PROPERTY
U
SciTegic.value.DoubleValue
78.059

@<SCITEGIC>MOL_PROPERTY
W
SciTegic.value.DoubleValue
-48.520

@<SCITEGIC>MOL_PROPERTY
W(PB)
SciTegic.value.DoubleValue
-50.670

@<SCITEGIC>MOL_PROPERTY
W(SA)
SciTegic.value.DoubleValue
2.150

@<SCITEGIC>MOL_PROPERTY
Valence
SciTegic.value.DoubleValue
6.917

@<SCITEGIC>MOL_PROPERTY
Coulomb
SciTegic.value.DoubleValue
71.697

@<SCITEGIC>MOL_PROPERTY
VdW
SciTegic.value.DoubleValue
-0.555

@<SCITEGIC>MOL_PROPERTY
VdW6
SciTegic.value.DoubleValue
-9.229

@<SCITEGIC>MOL_PROPERTY
VdW12
SciTegic.value.DoubleValue
8.673

@<SCITEGIC>MOL_PROPERTY
Bond
SciTegic.value.DoubleValue
0.274

@<SCITEGIC>MOL_PROPERTY
Angle
SciTegic.value.DoubleValue
2.758

@<SCITEGIC>MOL_PROPERTY
Pdih
SciTegic.value.DoubleValue
3.885

@<SCITEGIC>MOL_PROPERTY
Idih
SciTegic.value.DoubleValue
0.000

@<SCITEGIC>MOL_PROPERTY
Tether
SciTegic.value.DoubleValue
0.000

@<TRIPOS>MOLECULE
guest-s12_vm2.mol2 : vm2 ligand conformer 200
          26          25           1
SMALL
USER_CHARGES
 
@<TRIPOS>ATOM
       1    N1      20.677052   18.634721   24.826163 N.4        1 MOL1        -0.4857
       2    H1      21.162036   19.103147   24.047528 H          1 MOL1         0.3650
       3    H2      20.744274   17.624424   24.629600 H          1 MOL1         0.3650
       4    C1      19.223776   19.061040   24.856678 C.3        1 MOL1         0.0209
       5    H3      19.180575   20.110836   25.157250 H          1 MOL1         0.0967
       6    H4      18.734483   18.466746   25.632530 H          1 MOL1         0.0967
       7    C2      18.468690   18.873714   23.523515 C.3        1 MOL1        -0.1378
       8    H5      18.682549   17.892486   23.085785 H          1 MOL1         0.0993
       9    H6      17.396388   18.856622   23.759363 H          1 MOL1         0.0993
      10    C3      18.697454   20.012555   22.495698 C.3        1 MOL1        -0.1338
      11    H7      18.422112   20.963764   22.972093 H          1 MOL1         0.0993
      12    H8      17.984872   19.884651   21.669196 H          1 MOL1         0.0993
      13    C4      20.123226   20.161844   21.897979 C.3        1 MOL1        -0.1338
      14    H9      20.119928   21.091490   21.311827 H          1 MOL1         0.0993
      15    H10     20.871622   20.330707   22.680718 H          1 MOL1         0.0993
      16    C5      20.561982   19.023280   20.939570 C.3        1 MOL1        -0.1313
      17    H11     21.235745   19.453105   20.184907 H          1 MOL1         0.0993
      18    H12     19.695715   18.640492   20.382200 H          1 MOL1         0.0993
      19    C6      21.311413   17.857436   21.623930 C.3        1 MOL1        -0.2328
      20    H13     21.676086   17.148950   20.868778 H          1 MOL1         0.1004
      21    H14     20.666036   17.294865   22.305172 H          1 MOL1         0.1004
      22    H15     22.184526   18.218840   22.181925 H          1 MOL1         0.1004
      23    C7      21.344407   18.965410   26.153467 C.3        1 MOL1        -0.0781
      24    H16     22.390308   18.652610   26.116854 H          1 MOL1         0.0978
      25    H17     21.287061   20.042403   26.325820 H          1 MOL1         0.0978
      26    H18     20.828562   18.434393   26.956483 H          1 MOL1         0.0978
@<TRIPOS>BOND
    1     1     2    1
    2     1     3    1
    3     1     4    1
    4     4     5    1
    5     4     6    1
    6     4     7    1
    7     7     8    1
    8     7     9    1
    9     7    10    1
   10    10    11    1
   11    10    12    1
   12    10    13    1
   13    13    14    1
   14    13    15    1
   15    13    16    1
   16    16    17    1
   17    16    18    1
   18    16    19    1
   19    19    20    1
   20    19    21    1
   21    19    22    1
   22     1    23    1
   23    23    24    1
   24    23    25    1
   25    23    26    1
@<TRIPOS>SUBSTRUCTURE
       1 MOL1            1 RESIDUE      1      MOL     
@<SCITEGIC>MOL_PROPERTY
VM2 Rank
SciTegic.value.IntegerValue
200

@<SCITEGIC>MOL_PROPERTY
Conf_Id
SciTegic.value.IntegerValue
1254

@<SCITEGIC>MOL_PROPERTY
Probability
SciTegic.value.DoubleValue
0.00

@<SCITEGIC>MOL_PROPERTY
Sum Probability
SciTegic.value.DoubleValue
100.00

@<SCITEGIC>MOL_PROPERTY
Delta G
SciTegic.value.DoubleValue
8.652

@<SCITEGIC>MOL_PROPERTY
G
SciTegic.value.DoubleValue
84.118

@<SCITEGIC>MOL_PROPERTY
E
SciTegic.value.DoubleValue
51.105

@<SCITEGIC>MOL_PROPERTY
-TS
SciTegic.value.DoubleValue
33.013

@<SCITEGIC>MOL_PROPERTY
U+W
SciTegic.value.DoubleValue
29.643

@<SCITEGIC>MOL_PROPERTY
U
SciTegic.value.DoubleValue
78.059

@<SCITEGIC>MOL_PROPERTY
W
SciTegic.value.DoubleValue
-48.415

@<SCITEGIC>MOL_PROPERTY
W(PB)
SciTegic.value.DoubleValue
-50.579

@<SCITEGIC>MOL_PROPERTY
W(SA)
SciTegic.value.DoubleValue
2.164

@<SCITEGIC>MOL_PROPERTY
Valence
SciTegic.value.DoubleValue
6.917

@<SCITEGIC>MOL_PROPERTY
Coulomb
SciTegic.value.DoubleValue
71.697

@<SCITEGIC>MOL_PROPERTY
VdW
SciTegic.value.DoubleValue
-0.555

@<SCITEGIC>MOL_PROPERTY
VdW6
SciTegic.value.DoubleValue
-9.228

@<SCITEGIC>MOL_PROPERTY
VdW12
SciTegic.value.DoubleValue
8.673

@<SCITEGIC>MOL_PROPERTY
Bond
SciTegic.value.DoubleValue
0.274

@<SCITEGIC>MOL_PROPERTY
Angle
SciTegic.value.DoubleValue
2.757

@<SCITEGIC>MOL_PROPERTY
Pdih
SciTegic.value.DoubleValue
3.885

@<SCITEGIC>MOL_PROPERTY
Idih
SciTegic.value.DoubleValue
0.000

@<SCITEGIC>MOL_PROPERTY
Tether
SciTegic.value.DoubleValue
0.000

