@<TRIPOS>MOLECULE
CD_guest-s14_fast_vm2_single.mol2 : feprocess host+ligand conformer 1
         152         157           2
SMALL
USER_CHARGES
 
@<TRIPOS>ATOM
       1    C1      16.337910   15.363270   21.834413 C.3        1 MOL1         0.2972
       2    H1      15.263527   15.339773   22.054846 H          1 MOL1         0.0751
       3    O1      16.725393   16.596900   21.194268 O.3        1 MOL1        -0.3740
       4    C2      17.157730   15.210511   23.138770 C.3        1 MOL1         0.1003
       5    H2      16.886652   14.242267   23.579584 H          1 MOL1         0.0783
       6    O2      16.851032   16.262987   24.075559 O.3        1 MOL1        -0.5519
       7    H3      15.938527   16.571797   23.853726 H          1 MOL1         0.3769
       8    C3      18.673043   15.193780   22.826438 C.3        1 MOL1         0.1053
       9    H4      18.955693   16.180974   22.456682 H          1 MOL1         0.0783
      10    O3      19.385779   14.919322   24.033726 O.3        1 MOL1        -0.5519
      11    H5      18.919278   15.446395   24.720200 H          1 MOL1         0.3769
      12    C4      19.051856   14.192138   21.706216 C.3        1 MOL1         0.1018
      13    H6      19.107857   13.181378   22.131645 H          1 MOL1         0.0783
      14    C5      18.059501   14.225797   20.507912 C.3        1 MOL1         0.1043
      15    H7      18.261153   15.136363   19.928946 H          1 MOL1         0.0783
      16    O4      16.685939   14.264438   20.967073 O.3        1 MOL1        -0.3740
      17    C6      18.224989   13.028139   19.542282 C.3        1 MOL1         0.0138
      18    H8      19.176213   13.143488   19.005100 H          1 MOL1         0.0794
      19    H9      17.421152   13.066443   18.794916 H          1 MOL1         0.0794
      20    O5      18.206272   11.771548   20.231041 O.3        1 MOL1        -0.5486
      21    H10     18.241105   11.060250   19.554527 H          1 MOL1         0.3769
      22    C7      14.956758   20.301781   20.377990 C.3        1 MOL1         0.2972
      23    H11     14.309289   21.103564   20.000061 H          1 MOL1         0.0751
      24    O6      16.172193   20.820968   20.954946 O.3        1 MOL1        -0.3740
      25    C8      14.230639   19.458831   21.459531 C.3        1 MOL1         0.1003
      26    H12     13.353902   19.003066   20.981122 H          1 MOL1         0.0783
      27    O7      13.787638   20.272940   22.555909 O.3        1 MOL1        -0.5519
      28    H13     14.552591   20.834792   22.840684 H          1 MOL1         0.3769
      29    C9      15.144051   18.312703   21.963932 C.3        1 MOL1         0.1053
      30    H14     16.011696   18.761994   22.464267 H          1 MOL1         0.0783
      31    O8      14.410488   17.513545   22.898714 O.3        1 MOL1        -0.5519
      32    H15     13.885508   18.160888   23.422917 H          1 MOL1         0.3769
      33    C10     15.654401   17.461541   20.766086 C.3        1 MOL1         0.1018
      34    H16     14.818303   16.882282   20.353550 H          1 MOL1         0.0783
      35    C11     16.253391   18.358497   19.649795 C.3        1 MOL1         0.1043
      36    H17     17.169218   18.815327   20.040144 H          1 MOL1         0.0783
      37    O9      15.317906   19.407331   19.302505 O.3        1 MOL1        -0.3740
      38    C12     16.645544   17.585165   18.366270 C.3        1 MOL1         0.0138
      39    H18     17.577482   17.038643   18.560705 H          1 MOL1         0.0794
      40    H19     16.857020   18.311535   17.570393 H          1 MOL1         0.0794
      41    O10     15.631960   16.667137   17.940467 O.3        1 MOL1        -0.5486
      42    H20     15.611186   15.930417   18.588616 H          1 MOL1         0.3769
      43    C13     18.346791   24.223760   21.729303 C.3        1 MOL1         0.2972
      44    H21     18.743580   25.234285   21.889909 H          1 MOL1         0.0751
      45    O11     19.379993   23.219517   21.786184 O.3        1 MOL1        -0.3740
      46    C14     17.296303   23.887317   22.812916 C.3        1 MOL1         0.1003
      47    H22     16.456861   24.585293   22.697014 H          1 MOL1         0.0783
      48    O12     17.853545   24.025872   24.129789 O.3        1 MOL1        -0.5519
      49    H23     18.825748   23.851293   24.059114 H          1 MOL1         0.3769
      50    C15     16.765879   22.453684   22.601013 C.3        1 MOL1         0.1053
      51    H24     17.604780   21.768628   22.757577 H          1 MOL1         0.0783
      52    O13     15.738415   22.178722   23.556178 O.3        1 MOL1        -0.5519
      53    H25     16.074405   22.555060   24.400868 H          1 MOL1         0.3769
      54    C16     16.241735   22.246318   21.158173 C.3        1 MOL1         0.1018
      55    H26     15.258158   22.726912   21.072420 H          1 MOL1         0.0783
      56    C17     17.213318   22.807629   20.077491 C.3        1 MOL1         0.1043
      57    H27     18.068376   22.123283   20.008335 H          1 MOL1         0.0783
      58    O14     17.700518   24.126463   20.442877 O.3        1 MOL1        -0.3740
      59    C18     16.581121   22.888928   18.667863 C.3        1 MOL1         0.0138
      60    H28     16.441155   21.867344   18.289009 H          1 MOL1         0.0794
      61    H29     17.287006   23.393670   17.994696 H          1 MOL1         0.0794
      62    O15     15.324768   23.577772   18.680489 O.3        1 MOL1        -0.5486
      63    H30     15.014415   23.649274   17.751515 H          1 MOL1         0.3769
      64    C19     23.521102   22.777781   21.816891 C.3        1 MOL1         0.2972
      65    H31     24.601131   22.969718   21.782638 H          1 MOL1         0.0751
      66    O16     23.233990   21.366879   21.899271 O.3        1 MOL1        -0.3740
      67    C20     22.914255   23.451220   23.073059 C.3        1 MOL1         0.1003
      68    H32     23.126302   24.526435   23.008746 H          1 MOL1         0.0783
      69    O17     23.515275   22.917865   24.264075 O.3        1 MOL1        -0.5519
      70    H33     23.787095   21.989413   24.057669 H          1 MOL1         0.3769
      71    C21     21.378771   23.266914   23.113916 C.3        1 MOL1         0.1053
      72    H34     21.166259   22.201340   23.272940 H          1 MOL1         0.0783
      73    O18     20.833182   24.033103   24.191510 O.3        1 MOL1        -0.5519
      74    H35     21.426028   23.854660   24.955798 H          1 MOL1         0.3769
      75    C22     20.735227   23.698636   21.774129 C.3        1 MOL1         0.1018
      76    H36     20.793103   24.791735   21.688175 H          1 MOL1         0.0783
      77    C23     21.445957   23.046981   20.559627 C.3        1 MOL1         0.1043
      78    H37     21.278300   21.967070   20.621227 H          1 MOL1         0.0783
      79    O19     22.869531   23.306938   20.639864 O.3        1 MOL1        -0.3740
      80    C24     20.918151   23.505794   19.175420 C.3        1 MOL1         0.0138
      81    H38     20.068077   22.868654   18.899019 H          1 MOL1         0.0794
      82    H39     21.702802   23.335755   18.426194 H          1 MOL1         0.0794
      83    O20     20.507659   24.877073   19.154143 O.3        1 MOL1        -0.5486
      84    H40     19.596869   24.909205   19.525949 H          1 MOL1         0.3769
      85    C25     24.938159   17.662784   20.975150 C.3        1 MOL1         0.2972
      86    H41     25.628494   16.878283   20.639437 H          1 MOL1         0.0751
      87    O21     23.635758   17.128925   21.295984 O.3        1 MOL1        -0.3740
      88    C26     25.492931   18.370836   22.238911 C.3        1 MOL1         0.1003
      89    H42     26.463612   18.807272   21.969714 H          1 MOL1         0.0783
      90    O22     25.682558   17.441874   23.317723 O.3        1 MOL1        -0.5519
      91    H43     24.892327   16.844359   23.341523 H          1 MOL1         0.3769
      92    C27     24.557622   19.526110   22.671369 C.3        1 MOL1         0.1053
      93    H44     23.597827   19.095548   22.988687 H          1 MOL1         0.0783
      94    O23     25.149986   20.246719   23.757370 O.3        1 MOL1        -0.5519
      95    H45     25.481603   19.554271   24.371775 H          1 MOL1         0.3769
      96    C28     24.295866   20.486158   21.486623 C.3        1 MOL1         0.1018
      97    H46     25.226406   21.029572   21.276293 H          1 MOL1         0.0783
      98    C29     23.845192   19.722821   20.210647 C.3        1 MOL1         0.1043
      99    H47     22.857330   19.289595   20.402225 H          1 MOL1         0.0783
     100    O24     24.783611   18.655725   19.937678 O.3        1 MOL1        -0.3740
     101    C30     23.730474   20.597621   18.935391 C.3        1 MOL1         0.0138
     102    H48     22.743230   21.071757   18.919776 H          1 MOL1         0.0794
     103    H49     23.782757   19.941040   18.056672 H          1 MOL1         0.0794
     104    O25     24.738468   21.610207   18.851620 O.3        1 MOL1        -0.5486
     105    H50     24.406151   22.384669   19.359607 H          1 MOL1         0.3769
     106    C31     21.374924   13.662856   21.068362 C.3        1 MOL1         0.2972
     107    H51     20.976525   12.648564   20.936416 H          1 MOL1         0.0751
     108    O26     20.317773   14.639054   21.176398 O.3        1 MOL1        -0.3740
     109    C32     22.297642   13.752983   22.312306 C.3        1 MOL1         0.1003
     110    H52     23.168986   13.115612   22.112238 H          1 MOL1         0.0783
     111    O27     21.653124   13.279856   23.503236 O.3        1 MOL1        -0.5519
     112    H53     20.868402   13.862035   23.662141 H          1 MOL1         0.3769
     113    C33     22.805957   15.204936   22.488743 C.3        1 MOL1         0.1053
     114    H54     21.944742   15.856424   22.691378 H          1 MOL1         0.0783
     115    O28     23.722738   15.258456   23.585804 O.3        1 MOL1        -0.5519
     116    H55     23.305124   14.720515   24.295297 H          1 MOL1         0.3769
     117    C34     23.504087   15.695402   21.194968 C.3        1 MOL1         0.1018
     118    H56     24.480618   15.197062   21.133636 H          1 MOL1         0.0783
     119    C35     22.681703   15.389294   19.909711 C.3        1 MOL1         0.1043
     120    H57     21.826801   16.076247   19.880333 H          1 MOL1         0.0783
     121    O29     22.186863   14.025436   19.931464 O.3        1 MOL1        -0.3740
     122    C36     23.487450   15.592625   18.603719 C.3        1 MOL1         0.0138
     123    H58     23.662690   16.667385   18.463377 H          1 MOL1         0.0794
     124    H59     22.877484   15.248020   17.757970 H          1 MOL1         0.0794
     125    O30     24.741214   14.898888   18.629800 O.3        1 MOL1        -0.5486
     126    H60     25.170276   15.025233   17.755585 H          1 MOL1         0.3769
     127    C1      20.691854   19.113800   16.880653 C.3        1 MOL1        -0.2400
     128    H1      19.687408   19.414983   16.555642 H          1 MOL1         0.0971
     129    H2      21.323156   20.010939   16.913429 H          1 MOL1         0.0971
     130    H3      21.103503   18.440482   16.117598 H          1 MOL1         0.0971
     131    C2      20.642889   18.413621   18.254265 C.3        1 MOL1        -0.1385
     132    H4      21.653936   18.087546   18.531306 H          1 MOL1         0.0960
     133    H5      20.025859   17.507383   18.180197 H          1 MOL1         0.0960
     134    C3      20.080757   19.345435   19.348239 C.3        1 MOL1        -0.1409
     135    H6      20.727840   20.221573   19.444824 H          1 MOL1         0.0960
     136    H7      19.093825   19.718707   19.043214 H          1 MOL1         0.0960
     137    C4      19.965164   18.630028   20.711304 C.3        1 MOL1        -0.1409
     138    H8      20.927970   18.182374   20.993286 H          1 MOL1         0.0960
     139    H9      19.257601   17.795421   20.612020 H          1 MOL1         0.0960
     140    C5      19.498465   19.584576   21.835864 C.3        1 MOL1        -0.1409
     141    H10     20.306002   20.280713   22.098628 H          1 MOL1         0.0960
     142    H11     18.655168   20.188137   21.481567 H          1 MOL1         0.0960
     143    C6      19.063629   18.780795   23.076285 C.3        1 MOL1        -0.1450
     144    H12     19.899289   18.162035   23.430643 H          1 MOL1         0.0960
     145    H13     18.256894   18.108678   22.772654 H          1 MOL1         0.0960
     146    C7      18.523139   19.629867   24.233728 C.3        1 MOL1         0.0172
     147    H14     19.280792   20.336356   24.583505 H          1 MOL1         0.0934
     148    H15     17.644410   20.186435   23.900211 H          1 MOL1         0.0934
     149    N1      18.095185   18.757153   25.395681 N.4        1 MOL1        -0.5956
     150    H16     18.898860   18.316006   25.852772 H          1 MOL1         0.3624
     151    H17     17.479143   17.991408   25.080348 H          1 MOL1         0.3624
     152    H18     17.590196   19.288472   26.112256 H          1 MOL1         0.3624
@<TRIPOS>BOND
    1     1     2    1
    2     1     3    1
    3     1     4    1
    4     4     5    1
    5     4     6    1
    6     6     7    1
    7     4     8    1
    8     8     9    1
    9     8    10    1
   10    10    11    1
   11     8    12    1
   12    12    13    1
   13    12    14    1
   14    14    15    1
   15     1    16    1
   16    14    16    1
   17    14    17    1
   18    17    18    1
   19    17    19    1
   20    17    20    1
   21    20    21    1
   22    22    23    1
   23    22    24    1
   24    22    25    1
   25    25    26    1
   26    25    27    1
   27    27    28    1
   28    25    29    1
   29    29    30    1
   30    29    31    1
   31    31    32    1
   32     3    33    1
   33    29    33    1
   34    33    34    1
   35    33    35    1
   36    35    36    1
   37    22    37    1
   38    35    37    1
   39    35    38    1
   40    38    39    1
   41    38    40    1
   42    38    41    1
   43    41    42    1
   44    43    44    1
   45    43    45    1
   46    43    46    1
   47    46    47    1
   48    46    48    1
   49    48    49    1
   50    46    50    1
   51    50    51    1
   52    50    52    1
   53    52    53    1
   54    24    54    1
   55    50    54    1
   56    54    55    1
   57    54    56    1
   58    56    57    1
   59    43    58    1
   60    56    58    1
   61    56    59    1
   62    59    60    1
   63    59    61    1
   64    59    62    1
   65    62    63    1
   66    64    65    1
   67    64    66    1
   68    64    67    1
   69    67    68    1
   70    67    69    1
   71    69    70    1
   72    67    71    1
   73    71    72    1
   74    71    73    1
   75    73    74    1
   76    45    75    1
   77    71    75    1
   78    75    76    1
   79    75    77    1
   80    77    78    1
   81    64    79    1
   82    77    79    1
   83    77    80    1
   84    80    81    1
   85    80    82    1
   86    80    83    1
   87    83    84    1
   88    85    86    1
   89    85    87    1
   90    85    88    1
   91    88    89    1
   92    88    90    1
   93    90    91    1
   94    88    92    1
   95    92    93    1
   96    92    94    1
   97    94    95    1
   98    66    96    1
   99    92    96    1
  100    96    97    1
  101    96    98    1
  102    98    99    1
  103    85   100    1
  104    98   100    1
  105    98   101    1
  106   101   102    1
  107   101   103    1
  108   101   104    1
  109   104   105    1
  110   106   107    1
  111    12   108    1
  112   106   108    1
  113   106   109    1
  114   109   110    1
  115   109   111    1
  116   111   112    1
  117   109   113    1
  118   113   114    1
  119   113   115    1
  120   115   116    1
  121    87   117    1
  122   113   117    1
  123   117   118    1
  124   117   119    1
  125   119   120    1
  126   106   121    1
  127   119   121    1
  128   119   122    1
  129   122   123    1
  130   122   124    1
  131   122   125    1
  132   125   126    1
  133   127   128    1
  134   127   129    1
  135   127   130    1
  136   127   131    1
  137   131   132    1
  138   131   133    1
  139   131   134    1
  140   134   135    1
  141   134   136    1
  142   134   137    1
  143   137   138    1
  144   137   139    1
  145   137   140    1
  146   140   141    1
  147   140   142    1
  148   140   143    1
  149   143   144    1
  150   143   145    1
  151   143   146    1
  152   146   147    1
  153   146   148    1
  154   146   149    1
  155   149   150    1
  156   149   151    1
  157   149   152    1
@<TRIPOS>SUBSTRUCTURE
       1 MOL1            1 RESIDUE      1      MOL     
       2 MOL1          152 RESIDUE      1      MOL     
@<SCITEGIC>MOL_PROPERTY
feprocess Rank
SciTegic.value.IntegerValue
1

@<SCITEGIC>MOL_PROPERTY
Conf_Id
SciTegic.value.IntegerValue
1

@<SCITEGIC>MOL_PROPERTY
Probability
SciTegic.value.DoubleValue
100.00

@<SCITEGIC>MOL_PROPERTY
G
SciTegic.value.DoubleValue
581.665

@<SCITEGIC>MOL_PROPERTY
E
SciTegic.value.DoubleValue
377.956

@<SCITEGIC>MOL_PROPERTY
-TS
SciTegic.value.DoubleValue
203.710

@<SCITEGIC>MOL_PROPERTY
U+W
SciTegic.value.DoubleValue
243.819

@<SCITEGIC>MOL_PROPERTY
U
SciTegic.value.DoubleValue
332.033

@<SCITEGIC>MOL_PROPERTY
W
SciTegic.value.DoubleValue
-88.214

@<SCITEGIC>MOL_PROPERTY
W(PB)
SciTegic.value.DoubleValue
-94.268

@<SCITEGIC>MOL_PROPERTY
W(SA)
SciTegic.value.DoubleValue
6.054

@<SCITEGIC>MOL_PROPERTY
Valence
SciTegic.value.DoubleValue
150.318

@<SCITEGIC>MOL_PROPERTY
Coulomb
SciTegic.value.DoubleValue
208.764

@<SCITEGIC>MOL_PROPERTY
VdW
SciTegic.value.DoubleValue
-27.049

@<SCITEGIC>MOL_PROPERTY
VdW6
SciTegic.value.DoubleValue
-182.283

@<SCITEGIC>MOL_PROPERTY
VdW12
SciTegic.value.DoubleValue
155.234

@<SCITEGIC>MOL_PROPERTY
Bond
SciTegic.value.DoubleValue
4.665

@<SCITEGIC>MOL_PROPERTY
Angle
SciTegic.value.DoubleValue
12.041

@<SCITEGIC>MOL_PROPERTY
Pdih
SciTegic.value.DoubleValue
133.612

@<SCITEGIC>MOL_PROPERTY
Idih
SciTegic.value.DoubleValue
0.000

@<SCITEGIC>MOL_PROPERTY
Tether
SciTegic.value.DoubleValue
0.000

